/*---------------------------------------------------------------------------*\
| =========                 |                                                 |
| \\      /  F ield         | OpenFOAM: The Open Source CFD Toolbox           |
|  \\    /   O peration     | Version:  2106                                  |
|   \\  /    A nd           | Website:  www.openfoam.com                      |
|    \\/     M anipulation  |                                                 |
\*---------------------------------------------------------------------------*/
Build  : _f815a12b-20210902 OPENFOAM=2106
Arch   : "LSB;label=32;scalar=64"
Exec   : icoFoam
Date   : Nov 28 2021
Time   : 18:57:30
Host   : DESKTOP-GBRD023
PID    : 3520
I/O    : uncollated
Case   : /home/chari/Github_OpenFOAM/OpenFOAM_laminar_BL/blassius_laminar_github
nProcs : 1
trapFpe: Floating point exception trapping enabled (FOAM_SIGFPE).
fileModificationChecking : Monitoring run-time modified files using timeStampMaster (fileModificationSkew 5, maxFileModificationPolls 20)
allowSystemOperations : Allowing user-supplied system call operations

// * * * * * * * * * * * * * * * * * * * * * * * * * * * * * * * * * * * * * //
Create time

Create mesh for time = 0


PISO: Operating solver in PISO mode

Reading transportProperties

Reading field p

Reading field U

Reading/calculating face flux field phi


Starting time loop

Time = 0.00025

Courant Number mean: 0.05 max: 0.139886
smoothSolver:  Solving for Ux, Initial residual = 1, Final residual = 2.30817e-06, No Iterations 2
smoothSolver:  Solving for Uy, Initial residual = 0, Final residual = 0, No Iterations 0
DICPCG:  Solving for p, Initial residual = 1, Final residual = 0.0487715, No Iterations 114
time step continuity errors : sum local = 1.73452e-09, global = 4.23905e-20, cumulative = 4.23905e-20
DICPCG:  Solving for p, Initial residual = 0.00123241, Final residual = 9.62172e-07, No Iterations 128
time step continuity errors : sum local = 3.98253e-12, global = 3.45472e-19, cumulative = 3.87862e-19
ExecutionTime = 0.14 s  ClockTime = 1 s

Time = 0.0005

Courant Number mean: 0.050001 max: 0.142049
smoothSolver:  Solving for Ux, Initial residual = 0.0792018, Final residual = 1.47739e-07, No Iterations 2
smoothSolver:  Solving for Uy, Initial residual = 0.146186, Final residual = 1.25621e-06, No Iterations 2
DICPCG:  Solving for p, Initial residual = 0.00254128, Final residual = 9.68373e-05, No Iterations 117
time step continuity errors : sum local = 3.9064e-10, global = 2.42479e-19, cumulative = 6.30341e-19
DICPCG:  Solving for p, Initial residual = 0.000280128, Final residual = 9.10348e-07, No Iterations 122
time step continuity errors : sum local = 4.25866e-12, global = 5.22016e-19, cumulative = 1.15236e-18
ExecutionTime = 0.19 s  ClockTime = 1 s

Time = 0.00075

Courant Number mean: 0.0500025 max: 0.144226
smoothSolver:  Solving for Ux, Initial residual = 0.0443954, Final residual = 7.81265e-08, No Iterations 2
smoothSolver:  Solving for Uy, Initial residual = 0.0841488, Final residual = 7.18083e-07, No Iterations 2
DICPCG:  Solving for p, Initial residual = 0.00118043, Final residual = 5.69525e-05, No Iterations 112
time step continuity errors : sum local = 2.66303e-10, global = -1.3397e-19, cumulative = 1.01839e-18
DICPCG:  Solving for p, Initial residual = 0.000152268, Final residual = 8.57363e-07, No Iterations 116
time step continuity errors : sum local = 4.10892e-12, global = 5.37719e-21, cumulative = 1.02376e-18
ExecutionTime = 0.24 s  ClockTime = 1 s

Time = 0.001

Courant Number mean: 0.0500041 max: 0.146374
smoothSolver:  Solving for Ux, Initial residual = 0.0304232, Final residual = 5.12657e-08, No Iterations 2
smoothSolver:  Solving for Uy, Initial residual = 0.0572788, Final residual = 4.89279e-07, No Iterations 2
DICPCG:  Solving for p, Initial residual = 0.00117847, Final residual = 5.75707e-05, No Iterations 114
time step continuity errors : sum local = 2.7478e-10, global = -3.26423e-20, cumulative = 9.91121e-19
DICPCG:  Solving for p, Initial residual = 0.00012628, Final residual = 8.19864e-07, No Iterations 120
time step continuity errors : sum local = 3.56301e-12, global = -1.88137e-19, cumulative = 8.02985e-19
ExecutionTime = 0.28 s  ClockTime = 1 s

Time = 0.00125

Courant Number mean: 0.0500055 max: 0.148448
smoothSolver:  Solving for Ux, Initial residual = 0.0218953, Final residual = 3.54324e-08, No Iterations 2
smoothSolver:  Solving for Uy, Initial residual = 0.0397015, Final residual = 3.42962e-07, No Iterations 2
DICPCG:  Solving for p, Initial residual = 0.00114316, Final residual = 5.68078e-05, No Iterations 115
time step continuity errors : sum local = 2.47071e-10, global = 4.79707e-19, cumulative = 1.28269e-18
DICPCG:  Solving for p, Initial residual = 0.000114606, Final residual = 9.56151e-07, No Iterations 119
time step continuity errors : sum local = 3.83421e-12, global = 3.62953e-19, cumulative = 1.64564e-18
ExecutionTime = 0.33 s  ClockTime = 1 s

Time = 0.0015

Courant Number mean: 0.0500067 max: 0.15045
smoothSolver:  Solving for Ux, Initial residual = 0.0168482, Final residual = 2.62453e-08, No Iterations 2
smoothSolver:  Solving for Uy, Initial residual = 0.0298171, Final residual = 2.60765e-07, No Iterations 2
DICPCG:  Solving for p, Initial residual = 0.000905544, Final residual = 3.66925e-05, No Iterations 110
time step continuity errors : sum local = 1.47043e-10, global = 2.09367e-19, cumulative = 1.85501e-18
DICPCG:  Solving for p, Initial residual = 8.5892e-05, Final residual = 9.13658e-07, No Iterations 59
time step continuity errors : sum local = 3.83564e-12, global = -1.2284e-19, cumulative = 1.73217e-18
ExecutionTime = 0.36 s  ClockTime = 1 s

Time = 0.00175

Courant Number mean: 0.0500078 max: 0.152451
smoothSolver:  Solving for Ux, Initial residual = 0.013724, Final residual = 2.06899e-08, No Iterations 2
smoothSolver:  Solving for Uy, Initial residual = 0.0242791, Final residual = 2.13963e-07, No Iterations 2
DICPCG:  Solving for p, Initial residual = 0.00102494, Final residual = 4.91938e-05, No Iterations 110
time step continuity errors : sum local = 1.87858e-10, global = 1.13715e-19, cumulative = 1.84589e-18
DICPCG:  Solving for p, Initial residual = 9.81267e-05, Final residual = 8.13761e-07, No Iterations 117
time step continuity errors : sum local = 2.92863e-12, global = -1.82047e-19, cumulative = 1.66384e-18
ExecutionTime = 0.41 s  ClockTime = 1 s

Time = 0.002

Courant Number mean: 0.0500089 max: 0.154488
smoothSolver:  Solving for Ux, Initial residual = 0.0114056, Final residual = 9.24724e-06, No Iterations 1
smoothSolver:  Solving for Uy, Initial residual = 0.0200926, Final residual = 1.78625e-07, No Iterations 2
DICPCG:  Solving for p, Initial residual = 0.0010853, Final residual = 5.2523e-05, No Iterations 110
time step continuity errors : sum local = 1.88332e-10, global = 4.00949e-19, cumulative = 2.06479e-18
DICPCG:  Solving for p, Initial residual = 0.000102556, Final residual = 8.48019e-07, No Iterations 117
time step continuity errors : sum local = 2.86005e-12, global = 2.20268e-19, cumulative = 2.28506e-18
ExecutionTime = 0.45 s  ClockTime = 1 s

Time = 0.00225

Courant Number mean: 0.0500098 max: 0.156486
smoothSolver:  Solving for Ux, Initial residual = 0.00966415, Final residual = 7.66006e-06, No Iterations 1
smoothSolver:  Solving for Uy, Initial residual = 0.0169562, Final residual = 1.52335e-07, No Iterations 2
DICPCG:  Solving for p, Initial residual = 0.00115818, Final residual = 5.49194e-05, No Iterations 110
time step continuity errors : sum local = 1.84615e-10, global = -1.73953e-19, cumulative = 2.1111e-18
DICPCG:  Solving for p, Initial residual = 0.000109155, Final residual = 8.87499e-07, No Iterations 117
time step continuity errors : sum local = 2.80032e-12, global = 2.92338e-19, cumulative = 2.40344e-18
ExecutionTime = 0.5 s  ClockTime = 1 s

Time = 0.0025

Courant Number mean: 0.0500106 max: 0.158438
smoothSolver:  Solving for Ux, Initial residual = 0.00830909, Final residual = 6.44472e-06, No Iterations 1
smoothSolver:  Solving for Uy, Initial residual = 0.014521, Final residual = 1.31857e-07, No Iterations 2
DICPCG:  Solving for p, Initial residual = 0.0012615, Final residual = 5.60916e-05, No Iterations 110
time step continuity errors : sum local = 1.76464e-10, global = 4.74033e-20, cumulative = 2.45085e-18
DICPCG:  Solving for p, Initial residual = 0.000119314, Final residual = 8.91751e-07, No Iterations 117
time step continuity errors : sum local = 2.62988e-12, global = 3.88194e-19, cumulative = 2.83904e-18
ExecutionTime = 0.55 s  ClockTime = 1 s

Time = 0.00275

Courant Number mean: 0.0500113 max: 0.160341
smoothSolver:  Solving for Ux, Initial residual = 0.00722941, Final residual = 5.49045e-06, No Iterations 1
smoothSolver:  Solving for Uy, Initial residual = 0.0125839, Final residual = 1.15497e-07, No Iterations 2
DICPCG:  Solving for p, Initial residual = 0.00137314, Final residual = 5.64677e-05, No Iterations 110
time step continuity errors : sum local = 1.6612e-10, global = 1.40369e-19, cumulative = 2.97941e-18
DICPCG:  Solving for p, Initial residual = 0.000127991, Final residual = 8.61475e-07, No Iterations 117
time step continuity errors : sum local = 2.37393e-12, global = 4.37141e-20, cumulative = 3.02312e-18
ExecutionTime = 0.59 s  ClockTime = 1 s

Time = 0.003

Courant Number mean: 0.050012 max: 0.162187
smoothSolver:  Solving for Ux, Initial residual = 0.00635365, Final residual = 4.72739e-06, No Iterations 1
smoothSolver:  Solving for Uy, Initial residual = 0.0110163, Final residual = 1.02186e-07, No Iterations 2
DICPCG:  Solving for p, Initial residual = 0.00144628, Final residual = 6.82913e-05, No Iterations 109
time step continuity errors : sum local = 1.87911e-10, global = -7.93001e-20, cumulative = 2.94382e-18
DICPCG:  Solving for p, Initial residual = 0.000146358, Final residual = 9.63175e-07, No Iterations 115
time step continuity errors : sum local = 2.48374e-12, global = 1.14408e-19, cumulative = 3.05823e-18
ExecutionTime = 0.64 s  ClockTime = 1 s

Time = 0.00325

Courant Number mean: 0.0500126 max: 0.163973
smoothSolver:  Solving for Ux, Initial residual = 0.00563501, Final residual = 4.11092e-06, No Iterations 1
smoothSolver:  Solving for Uy, Initial residual = 0.00973252, Final residual = 9.12111e-08, No Iterations 2
DICPCG:  Solving for p, Initial residual = 0.00155947, Final residual = 7.54709e-05, No Iterations 108
time step continuity errors : sum local = 1.94352e-10, global = -2.30453e-19, cumulative = 2.82778e-18
DICPCG:  Solving for p, Initial residual = 0.000160288, Final residual = 9.59901e-07, No Iterations 72
time step continuity errors : sum local = 2.5962e-12, global = -3.24515e-19, cumulative = 2.50326e-18
ExecutionTime = 0.67 s  ClockTime = 1 s

Time = 0.0035

Courant Number mean: 0.0500131 max: 0.165691
smoothSolver:  Solving for Ux, Initial residual = 0.00503655, Final residual = 3.60519e-06, No Iterations 1
smoothSolver:  Solving for Uy, Initial residual = 0.0086685, Final residual = 8.20369e-08, No Iterations 2
DICPCG:  Solving for p, Initial residual = 0.00166191, Final residual = 7.16896e-05, No Iterations 108
time step continuity errors : sum local = 1.73026e-10, global = 5.28301e-20, cumulative = 2.55609e-18
DICPCG:  Solving for p, Initial residual = 0.000164722, Final residual = 9.72382e-07, No Iterations 70
time step continuity errors : sum local = 2.46371e-12, global = 8.55295e-20, cumulative = 2.64162e-18
ExecutionTime = 0.7 s  ClockTime = 1 s

Time = 0.00375

Courant Number mean: 0.0500135 max: 0.167338
smoothSolver:  Solving for Ux, Initial residual = 0.00453471, Final residual = 3.18749e-06, No Iterations 1
smoothSolver:  Solving for Uy, Initial residual = 0.00781676, Final residual = 7.43178e-08, No Iterations 2
DICPCG:  Solving for p, Initial residual = 0.00175903, Final residual = 8.42019e-05, No Iterations 107
time step continuity errors : sum local = 1.90689e-10, global = -1.8978e-19, cumulative = 2.45184e-18
DICPCG:  Solving for p, Initial residual = 0.000184848, Final residual = 9.40524e-07, No Iterations 100
time step continuity errors : sum local = 2.02405e-12, global = -4.58344e-19, cumulative = 1.9935e-18
ExecutionTime = 0.75 s  ClockTime = 1 s

Time = 0.004

Courant Number mean: 0.0500139 max: 0.168906
smoothSolver:  Solving for Ux, Initial residual = 0.00411322, Final residual = 2.84262e-06, No Iterations 1
smoothSolver:  Solving for Uy, Initial residual = 0.0071163, Final residual = 6.78393e-08, No Iterations 2
DICPCG:  Solving for p, Initial residual = 0.0018808, Final residual = 7.76198e-05, No Iterations 107
time step continuity errors : sum local = 1.65866e-10, global = 3.54246e-19, cumulative = 2.34774e-18
DICPCG:  Solving for p, Initial residual = 0.000186226, Final residual = 9.97537e-07, No Iterations 108
time step continuity errors : sum local = 2.03147e-12, global = 1.07346e-19, cumulative = 2.45509e-18
ExecutionTime = 0.78 s  ClockTime = 1 s

Time = 0.00425

Courant Number mean: 0.0500142 max: 0.170391
smoothSolver:  Solving for Ux, Initial residual = 0.0037565, Final residual = 2.55542e-06, No Iterations 1
smoothSolver:  Solving for Uy, Initial residual = 0.00653421, Final residual = 6.25296e-08, No Iterations 2
DICPCG:  Solving for p, Initial residual = 0.00195206, Final residual = 7.15792e-05, No Iterations 107
time step continuity errors : sum local = 1.45056e-10, global = 5.55252e-19, cumulative = 3.01034e-18
DICPCG:  Solving for p, Initial residual = 0.000187284, Final residual = 8.92915e-07, No Iterations 117
time step continuity errors : sum local = 1.72511e-12, global = -1.75302e-19, cumulative = 2.83504e-18
ExecutionTime = 0.83 s  ClockTime = 1 s

Time = 0.0045

Courant Number mean: 0.0500145 max: 0.171787
smoothSolver:  Solving for Ux, Initial residual = 0.00345372, Final residual = 2.31731e-06, No Iterations 1
smoothSolver:  Solving for Uy, Initial residual = 0.0060504, Final residual = 5.81745e-08, No Iterations 2
DICPCG:  Solving for p, Initial residual = 0.00197884, Final residual = 9.05676e-05, No Iterations 106
time step continuity errors : sum local = 1.75372e-10, global = -6.40888e-20, cumulative = 2.77095e-18
DICPCG:  Solving for p, Initial residual = 0.000212029, Final residual = 9.53169e-07, No Iterations 112
time step continuity errors : sum local = 1.77637e-12, global = -3.01456e-19, cumulative = 2.46949e-18
ExecutionTime = 0.88 s  ClockTime = 1 s

Time = 0.00475

Courant Number mean: 0.0500147 max: 0.173089
smoothSolver:  Solving for Ux, Initial residual = 0.00319688, Final residual = 2.11897e-06, No Iterations 1
smoothSolver:  Solving for Uy, Initial residual = 0.00565009, Final residual = 5.4608e-08, No Iterations 2
DICPCG:  Solving for p, Initial residual = 0.00204569, Final residual = 9.78924e-05, No Iterations 104
time step continuity errors : sum local = 1.82492e-10, global = 1.13896e-19, cumulative = 2.58339e-18
DICPCG:  Solving for p, Initial residual = 0.000222869, Final residual = 7.9897e-07, No Iterations 118
time step continuity errors : sum local = 1.44891e-12, global = -5.07189e-20, cumulative = 2.53267e-18
ExecutionTime = 0.92 s  ClockTime = 2 s

Time = 0.005

Courant Number mean: 0.0500149 max: 0.174294
smoothSolver:  Solving for Ux, Initial residual = 0.00297899, Final residual = 1.95391e-06, No Iterations 1
smoothSolver:  Solving for Uy, Initial residual = 0.00532237, Final residual = 5.17286e-08, No Iterations 2
DICPCG:  Solving for p, Initial residual = 0.00208669, Final residual = 0.000103644, No Iterations 103
time step continuity errors : sum local = 1.87113e-10, global = -5.54706e-20, cumulative = 2.4772e-18
DICPCG:  Solving for p, Initial residual = 0.000232869, Final residual = 9.16046e-07, No Iterations 119
time step continuity errors : sum local = 1.61726e-12, global = -4.14055e-19, cumulative = 2.06315e-18
ExecutionTime = 1 s  ClockTime = 2 s

Time = 0.00525

Courant Number mean: 0.0500152 max: 0.175396
smoothSolver:  Solving for Ux, Initial residual = 0.00279523, Final residual = 1.8174e-06, No Iterations 1
smoothSolver:  Solving for Uy, Initial residual = 0.00505971, Final residual = 4.94516e-08, No Iterations 2
DICPCG:  Solving for p, Initial residual = 0.0021231, Final residual = 9.37722e-05, No Iterations 101
time step continuity errors : sum local = 1.65813e-10, global = -4.07871e-20, cumulative = 2.02236e-18
DICPCG:  Solving for p, Initial residual = 0.000227037, Final residual = 8.82907e-07, No Iterations 119
time step continuity errors : sum local = 1.54293e-12, global = 2.0659e-19, cumulative = 2.22895e-18
ExecutionTime = 1.05 s  ClockTime = 2 s

Time = 0.0055

Courant Number mean: 0.0500154 max: 0.176394
smoothSolver:  Solving for Ux, Initial residual = 0.00264133, Final residual = 1.70567e-06, No Iterations 1
smoothSolver:  Solving for Uy, Initial residual = 0.00485645, Final residual = 4.77069e-08, No Iterations 2
DICPCG:  Solving for p, Initial residual = 0.00221032, Final residual = 0.000107961, No Iterations 25
time step continuity errors : sum local = 1.95426e-10, global = -1.48476e-19, cumulative = 2.08047e-18
DICPCG:  Solving for p, Initial residual = 0.000240104, Final residual = 8.02461e-07, No Iterations 120
time step continuity errors : sum local = 1.40922e-12, global = 3.86168e-20, cumulative = 2.11909e-18
ExecutionTime = 1.08 s  ClockTime = 2 s

Time = 0.00575

Courant Number mean: 0.0500156 max: 0.177284
smoothSolver:  Solving for Ux, Initial residual = 0.00251418, Final residual = 1.61597e-06, No Iterations 1
smoothSolver:  Solving for Uy, Initial residual = 0.00470927, Final residual = 4.64271e-08, No Iterations 2
DICPCG:  Solving for p, Initial residual = 0.00233889, Final residual = 0.000114191, No Iterations 50
time step continuity errors : sum local = 2.31199e-10, global = 2.63259e-19, cumulative = 2.38235e-18
DICPCG:  Solving for p, Initial residual = 0.000252613, Final residual = 9.35214e-07, No Iterations 118
time step continuity errors : sum local = 1.64726e-12, global = -2.23565e-19, cumulative = 2.15878e-18
ExecutionTime = 1.13 s  ClockTime = 2 s

Time = 0.006

Courant Number mean: 0.0500159 max: 0.178065
smoothSolver:  Solving for Ux, Initial residual = 0.00241151, Final residual = 1.54613e-06, No Iterations 1
smoothSolver:  Solving for Uy, Initial residual = 0.00461667, Final residual = 4.55575e-08, No Iterations 2
DICPCG:  Solving for p, Initial residual = 0.00249725, Final residual = 0.000123356, No Iterations 105
time step continuity errors : sum local = 2.1824e-10, global = 5.45832e-19, cumulative = 2.70462e-18
DICPCG:  Solving for p, Initial residual = 0.000258447, Final residual = 7.72733e-07, No Iterations 120
time step continuity errors : sum local = 1.40109e-12, global = -4.11336e-19, cumulative = 2.29328e-18
ExecutionTime = 1.17 s  ClockTime = 2 s

Time = 0.00625

Courant Number mean: 0.0500162 max: 0.178738
smoothSolver:  Solving for Ux, Initial residual = 0.00233169, Final residual = 1.49631e-06, No Iterations 1
smoothSolver:  Solving for Uy, Initial residual = 0.00457935, Final residual = 4.50803e-08, No Iterations 2
DICPCG:  Solving for p, Initial residual = 0.00261721, Final residual = 0.000112428, No Iterations 106
time step continuity errors : sum local = 2.03675e-10, global = -2.52345e-20, cumulative = 2.26805e-18
DICPCG:  Solving for p, Initial residual = 0.000251318, Final residual = 9.56545e-07, No Iterations 117
time step continuity errors : sum local = 1.80316e-12, global = 1.4558e-19, cumulative = 2.41363e-18
ExecutionTime = 1.22 s  ClockTime = 2 s

Time = 0.0065

Courant Number mean: 0.0500166 max: 0.179304
smoothSolver:  Solving for Ux, Initial residual = 0.00227137, Final residual = 1.4623e-06, No Iterations 1
smoothSolver:  Solving for Uy, Initial residual = 0.00458971, Final residual = 4.49557e-08, No Iterations 2
DICPCG:  Solving for p, Initial residual = 0.00263199, Final residual = 0.000112931, No Iterations 106
time step continuity errors : sum local = 2.11767e-10, global = 4.13379e-19, cumulative = 2.82701e-18
DICPCG:  Solving for p, Initial residual = 0.000247048, Final residual = 9.96571e-07, No Iterations 116
time step continuity errors : sum local = 1.94296e-12, global = -4.76214e-20, cumulative = 2.77938e-18
ExecutionTime = 1.27 s  ClockTime = 2 s

Time = 0.00675

Courant Number mean: 0.050017 max: 0.179763
smoothSolver:  Solving for Ux, Initial residual = 0.00221904, Final residual = 1.43471e-06, No Iterations 1
smoothSolver:  Solving for Uy, Initial residual = 0.00460376, Final residual = 4.48689e-08, No Iterations 2
DICPCG:  Solving for p, Initial residual = 0.00303506, Final residual = 0.000122018, No Iterations 108
time step continuity errors : sum local = 2.37531e-10, global = 5.89536e-19, cumulative = 3.36892e-18
DICPCG:  Solving for p, Initial residual = 0.000340785, Final residual = 9.84576e-07, No Iterations 73
time step continuity errors : sum local = 1.73178e-12, global = -1.46088e-19, cumulative = 3.22283e-18
ExecutionTime = 1.3 s  ClockTime = 2 s

Time = 0.007

Courant Number mean: 0.0500172 max: 0.180092
smoothSolver:  Solving for Ux, Initial residual = 0.00201043, Final residual = 1.27855e-06, No Iterations 1
smoothSolver:  Solving for Uy, Initial residual = 0.00407586, Final residual = 4.04232e-08, No Iterations 2
DICPCG:  Solving for p, Initial residual = 0.00288462, Final residual = 0.000141999, No Iterations 103
time step continuity errors : sum local = 2.45517e-10, global = 2.0601e-19, cumulative = 3.42884e-18
DICPCG:  Solving for p, Initial residual = 0.000313704, Final residual = 9.70107e-07, No Iterations 113
time step continuity errors : sum local = 1.62785e-12, global = 1.504e-20, cumulative = 3.44388e-18
ExecutionTime = 1.34 s  ClockTime = 2 s

Time = 0.00725

Courant Number mean: 0.0500175 max: 0.180303
smoothSolver:  Solving for Ux, Initial residual = 0.001905, Final residual = 1.20698e-06, No Iterations 1
smoothSolver:  Solving for Uy, Initial residual = 0.00388479, Final residual = 3.87125e-08, No Iterations 2
DICPCG:  Solving for p, Initial residual = 0.00370837, Final residual = 0.000164458, No Iterations 48
time step continuity errors : sum local = 3.16222e-10, global = 2.47241e-19, cumulative = 3.69112e-18
DICPCG:  Solving for p, Initial residual = 0.000368438, Final residual = 9.78739e-07, No Iterations 114
time step continuity errors : sum local = 1.65083e-12, global = -6.00583e-20, cumulative = 3.63106e-18
ExecutionTime = 1.38 s  ClockTime = 2 s

Time = 0.0075

Courant Number mean: 0.0500178 max: 0.180406
smoothSolver:  Solving for Ux, Initial residual = 0.00184936, Final residual = 1.17548e-06, No Iterations 1
smoothSolver:  Solving for Uy, Initial residual = 0.00384685, Final residual = 3.82451e-08, No Iterations 2
DICPCG:  Solving for p, Initial residual = 0.0046941, Final residual = 0.000231553, No Iterations 104
time step continuity errors : sum local = 3.93427e-10, global = -3.15918e-19, cumulative = 3.31515e-18
DICPCG:  Solving for p, Initial residual = 0.000411373, Final residual = 8.68405e-07, No Iterations 122
time step continuity errors : sum local = 1.56682e-12, global = -2.7246e-19, cumulative = 3.04269e-18
ExecutionTime = 1.42 s  ClockTime = 2 s

Time = 0.00775

Courant Number mean: 0.0500183 max: 0.180411
smoothSolver:  Solving for Ux, Initial residual = 0.00183534, Final residual = 1.1782e-06, No Iterations 1
smoothSolver:  Solving for Uy, Initial residual = 0.0039336, Final residual = 3.87433e-08, No Iterations 2
DICPCG:  Solving for p, Initial residual = 0.00507304, Final residual = 0.000225249, No Iterations 105
time step continuity errors : sum local = 4.04488e-10, global = 2.55021e-19, cumulative = 3.29771e-18
DICPCG:  Solving for p, Initial residual = 0.000540358, Final residual = 9.96177e-07, No Iterations 122
time step continuity errors : sum local = 1.61132e-12, global = -3.30751e-19, cumulative = 2.96696e-18
ExecutionTime = 1.47 s  ClockTime = 2 s

Time = 0.008

Courant Number mean: 0.0500186 max: 0.1803
smoothSolver:  Solving for Ux, Initial residual = 0.00169388, Final residual = 1.07707e-06, No Iterations 1
smoothSolver:  Solving for Uy, Initial residual = 0.00359562, Final residual = 9.85891e-06, No Iterations 1
DICPCG:  Solving for p, Initial residual = 0.00719039, Final residual = 0.000270775, No Iterations 107
time step continuity errors : sum local = 4.40263e-10, global = -4.38318e-19, cumulative = 2.52864e-18
DICPCG:  Solving for p, Initial residual = 0.000806214, Final residual = 7.89487e-07, No Iterations 124
time step continuity errors : sum local = 1.04553e-12, global = -3.98241e-19, cumulative = 2.1304e-18
ExecutionTime = 1.52 s  ClockTime = 2 s

Time = 0.00825

Courant Number mean: 0.0500188 max: 0.180062
smoothSolver:  Solving for Ux, Initial residual = 0.00149586, Final residual = 9.30406e-07, No Iterations 1
smoothSolver:  Solving for Uy, Initial residual = 0.00307559, Final residual = 8.56552e-06, No Iterations 1
DICPCG:  Solving for p, Initial residual = 0.00682265, Final residual = 0.000279254, No Iterations 107
time step continuity errors : sum local = 3.7389e-10, global = 1.41683e-19, cumulative = 2.27208e-18
DICPCG:  Solving for p, Initial residual = 0.000792544, Final residual = 8.51015e-07, No Iterations 122
time step continuity errors : sum local = 9.29175e-13, global = -1.6844e-20, cumulative = 2.25524e-18
ExecutionTime = 1.56 s  ClockTime = 2 s

Time = 0.0085

Courant Number mean: 0.0500188 max: 0.179704
smoothSolver:  Solving for Ux, Initial residual = 0.00132876, Final residual = 8.09009e-07, No Iterations 1
smoothSolver:  Solving for Uy, Initial residual = 0.00265951, Final residual = 7.51201e-06, No Iterations 1
DICPCG:  Solving for p, Initial residual = 0.00665269, Final residual = 0.00032752, No Iterations 103
time step continuity errors : sum local = 3.62232e-10, global = 5.63579e-20, cumulative = 2.31159e-18
DICPCG:  Solving for p, Initial residual = 0.000734057, Final residual = 8.80998e-07, No Iterations 121
time step continuity errors : sum local = 8.90034e-13, global = 2.4692e-19, cumulative = 2.55851e-18
ExecutionTime = 1.61 s  ClockTime = 2 s

Time = 0.00875

Courant Number mean: 0.0500189 max: 0.179242
smoothSolver:  Solving for Ux, Initial residual = 0.00124204, Final residual = 7.52225e-07, No Iterations 1
smoothSolver:  Solving for Uy, Initial residual = 0.00249475, Final residual = 7.06484e-06, No Iterations 1
DICPCG:  Solving for p, Initial residual = 0.00641056, Final residual = 0.000276569, No Iterations 7
time step continuity errors : sum local = 2.79305e-10, global = 2.33437e-19, cumulative = 2.79195e-18
DICPCG:  Solving for p, Initial residual = 0.000586316, Final residual = 8.67621e-07, No Iterations 120
time step continuity errors : sum local = 8.81467e-13, global = -3.28331e-19, cumulative = 2.46362e-18
ExecutionTime = 1.63 s  ClockTime = 2 s

Time = 0.009

Courant Number mean: 0.0500189 max: 0.178691
smoothSolver:  Solving for Ux, Initial residual = 0.00120133, Final residual = 7.31429e-07, No Iterations 1
smoothSolver:  Solving for Uy, Initial residual = 0.00247049, Final residual = 6.9545e-06, No Iterations 1
DICPCG:  Solving for p, Initial residual = 0.00611091, Final residual = 0.000300024, No Iterations 56
time step continuity errors : sum local = 3.53491e-10, global = -1.64059e-19, cumulative = 2.29956e-18
DICPCG:  Solving for p, Initial residual = 0.000625335, Final residual = 9.01185e-07, No Iterations 122
time step continuity errors : sum local = 9.20402e-13, global = -1.46867e-19, cumulative = 2.15269e-18
ExecutionTime = 1.67 s  ClockTime = 2 s

Time = 0.00925

Courant Number mean: 0.0500189 max: 0.178062
smoothSolver:  Solving for Ux, Initial residual = 0.00117917, Final residual = 7.24455e-07, No Iterations 1
smoothSolver:  Solving for Uy, Initial residual = 0.00249871, Final residual = 6.98292e-06, No Iterations 1
DICPCG:  Solving for p, Initial residual = 0.00596441, Final residual = 0.000275085, No Iterations 103
time step continuity errors : sum local = 2.87079e-10, global = -1.71528e-19, cumulative = 1.98117e-18
DICPCG:  Solving for p, Initial residual = 0.000576176, Final residual = 8.19904e-07, No Iterations 124
time step continuity errors : sum local = 8.97659e-13, global = -1.01186e-19, cumulative = 1.87998e-18
ExecutionTime = 1.71 s  ClockTime = 2 s

Time = 0.0095

Courant Number mean: 0.050019 max: 0.177367
smoothSolver:  Solving for Ux, Initial residual = 0.00116532, Final residual = 7.23151e-07, No Iterations 1
smoothSolver:  Solving for Uy, Initial residual = 0.00254527, Final residual = 7.05816e-06, No Iterations 1
DICPCG:  Solving for p, Initial residual = 0.00534887, Final residual = 0.000240132, No Iterations 104
time step continuity errors : sum local = 2.62516e-10, global = -8.06078e-20, cumulative = 1.79937e-18
DICPCG:  Solving for p, Initial residual = 0.000514867, Final residual = 8.25227e-07, No Iterations 122
time step continuity errors : sum local = 9.50295e-13, global = -3.03477e-19, cumulative = 1.4959e-18
ExecutionTime = 1.75 s  ClockTime = 2 s

Time = 0.00975

Courant Number mean: 0.0500191 max: 0.176909
smoothSolver:  Solving for Ux, Initial residual = 0.00115411, Final residual = 7.23332e-07, No Iterations 1
smoothSolver:  Solving for Uy, Initial residual = 0.00259319, Final residual = 7.14034e-06, No Iterations 1
DICPCG:  Solving for p, Initial residual = 0.00520537, Final residual = 0.000226938, No Iterations 104
time step continuity errors : sum local = 2.59544e-10, global = 8.41052e-20, cumulative = 1.58e-18
DICPCG:  Solving for p, Initial residual = 0.000491517, Final residual = 8.34448e-07, No Iterations 121
time step continuity errors : sum local = 9.98631e-13, global = -2.95312e-19, cumulative = 1.28469e-18
ExecutionTime = 1.79 s  ClockTime = 3 s

Time = 0.01

Courant Number mean: 0.0500192 max: 0.177535
smoothSolver:  Solving for Ux, Initial residual = 0.00114161, Final residual = 7.22166e-07, No Iterations 1
smoothSolver:  Solving for Uy, Initial residual = 0.0026291, Final residual = 7.19914e-06, No Iterations 1
DICPCG:  Solving for p, Initial residual = 0.00523668, Final residual = 0.000246294, No Iterations 48
time step continuity errors : sum local = 3.32859e-10, global = -2.83239e-19, cumulative = 1.00145e-18
DICPCG:  Solving for p, Initial residual = 0.000510508, Final residual = 8.24314e-07, No Iterations 121
time step continuity errors : sum local = 9.93029e-13, global = 2.1797e-19, cumulative = 1.21942e-18
ExecutionTime = 1.85 s  ClockTime = 3 s

Time = 0.01025

Courant Number mean: 0.0500194 max: 0.178078
smoothSolver:  Solving for Ux, Initial residual = 0.00112183, Final residual = 7.14376e-07, No Iterations 1
smoothSolver:  Solving for Uy, Initial residual = 0.00263257, Final residual = 7.1849e-06, No Iterations 1
DICPCG:  Solving for p, Initial residual = 0.00563697, Final residual = 0.000280026, No Iterations 47
time step continuity errors : sum local = 3.84684e-10, global = 1.35141e-19, cumulative = 1.35456e-18
DICPCG:  Solving for p, Initial residual = 0.000564227, Final residual = 8.24528e-07, No Iterations 122
time step continuity errors : sum local = 1.00146e-12, global = 1.75965e-19, cumulative = 1.53053e-18
ExecutionTime = 1.9 s  ClockTime = 3 s

Time = 0.0105

Courant Number mean: 0.0500196 max: 0.178535
smoothSolver:  Solving for Ux, Initial residual = 0.00108097, Final residual = 6.89257e-07, No Iterations 1
smoothSolver:  Solving for Uy, Initial residual = 0.00255353, Final residual = 6.97606e-06, No Iterations 1
DICPCG:  Solving for p, Initial residual = 0.00982205, Final residual = 0.000466603, No Iterations 106
time step continuity errors : sum local = 5.58598e-10, global = 3.93803e-20, cumulative = 1.56991e-18
DICPCG:  Solving for p, Initial residual = 0.00125665, Final residual = 8.57022e-07, No Iterations 125
time step continuity errors : sum local = 7.40544e-13, global = -3.07103e-19, cumulative = 1.2628e-18
ExecutionTime = 1.95 s  ClockTime = 3 s

Time = 0.01075

Courant Number mean: 0.0500195 max: 0.178901
smoothSolver:  Solving for Ux, Initial residual = 0.000909067, Final residual = 5.59177e-07, No Iterations 1
smoothSolver:  Solving for Uy, Initial residual = 0.00202379, Final residual = 5.69718e-06, No Iterations 1
DICPCG:  Solving for p, Initial residual = 0.00823177, Final residual = 0.000336891, No Iterations 107
time step continuity errors : sum local = 2.886e-10, global = 4.36251e-19, cumulative = 1.69905e-18
DICPCG:  Solving for p, Initial residual = 0.000585683, Final residual = 8.26919e-07, No Iterations 123
time step continuity errors : sum local = 8.58121e-13, global = 4.21347e-19, cumulative = 2.1204e-18
ExecutionTime = 1.98 s  ClockTime = 3 s

Time = 0.011

Courant Number mean: 0.0500196 max: 0.179224
smoothSolver:  Solving for Ux, Initial residual = 0.000960237, Final residual = 6.05464e-07, No Iterations 1
smoothSolver:  Solving for Uy, Initial residual = 0.00224688, Final residual = 6.24247e-06, No Iterations 1
DICPCG:  Solving for p, Initial residual = 0.0126607, Final residual = 0.000492398, No Iterations 108
time step continuity errors : sum local = 5.10815e-10, global = 4.15537e-19, cumulative = 2.53594e-18
DICPCG:  Solving for p, Initial residual = 0.000644685, Final residual = 8.28917e-07, No Iterations 122
time step continuity errors : sum local = 1.22408e-12, global = -2.62465e-19, cumulative = 2.27347e-18
ExecutionTime = 2.03 s  ClockTime = 3 s

Time = 0.01125

Courant Number mean: 0.0500199 max: 0.179486
smoothSolver:  Solving for Ux, Initial residual = 0.00112119, Final residual = 7.4073e-07, No Iterations 1
smoothSolver:  Solving for Uy, Initial residual = 0.00288067, Final residual = 7.77344e-06, No Iterations 1
DICPCG:  Solving for p, Initial residual = 0.00498094, Final residual = 0.000232573, No Iterations 107
time step continuity errors : sum local = 3.44311e-10, global = 1.71343e-19, cumulative = 2.44482e-18
DICPCG:  Solving for p, Initial residual = 0.000387371, Final residual = 9.81183e-07, No Iterations 72
time step continuity errors : sum local = 1.79379e-12, global = -2.24272e-19, cumulative = 2.22054e-18
ExecutionTime = 2.06 s  ClockTime = 3 s

Time = 0.0115

Courant Number mean: 0.0500203 max: 0.179673
smoothSolver:  Solving for Ux, Initial residual = 0.00117666, Final residual = 7.91608e-07, No Iterations 1
smoothSolver:  Solving for Uy, Initial residual = 0.00314298, Final residual = 8.4026e-06, No Iterations 1
DICPCG:  Solving for p, Initial residual = 0.00367599, Final residual = 0.000177228, No Iterations 105
time step continuity errors : sum local = 2.97722e-10, global = -3.08432e-19, cumulative = 1.91211e-18
DICPCG:  Solving for p, Initial residual = 0.000332814, Final residual = 9.68473e-07, No Iterations 119
time step continuity errors : sum local = 1.70658e-12, global = 1.03961e-19, cumulative = 2.01607e-18
ExecutionTime = 2.11 s  ClockTime = 3 s

Time = 0.01175

Courant Number mean: 0.0500208 max: 0.179789
smoothSolver:  Solving for Ux, Initial residual = 0.00118381, Final residual = 8.02956e-07, No Iterations 1
smoothSolver:  Solving for Uy, Initial residual = 0.00323212, Final residual = 8.60925e-06, No Iterations 1
DICPCG:  Solving for p, Initial residual = 0.00336732, Final residual = 0.000143764, No Iterations 105
time step continuity errors : sum local = 2.53458e-10, global = -5.36315e-19, cumulative = 1.47976e-18
DICPCG:  Solving for p, Initial residual = 0.00029735, Final residual = 9.56721e-07, No Iterations 118
time step continuity errors : sum local = 1.7448e-12, global = 3.08951e-19, cumulative = 1.78871e-18
ExecutionTime = 2.17 s  ClockTime = 3 s

Time = 0.012

Courant Number mean: 0.0500213 max: 0.179835
smoothSolver:  Solving for Ux, Initial residual = 0.00118263, Final residual = 8.07141e-07, No Iterations 1
smoothSolver:  Solving for Uy, Initial residual = 0.00329083, Final residual = 8.74022e-06, No Iterations 1
DICPCG:  Solving for p, Initial residual = 0.00324689, Final residual = 0.000158529, No Iterations 104
time step continuity errors : sum local = 2.88902e-10, global = 4.42167e-21, cumulative = 1.79313e-18
DICPCG:  Solving for p, Initial residual = 0.000306391, Final residual = 9.16215e-07, No Iterations 117
time step continuity errors : sum local = 1.72451e-12, global = -4.29738e-19, cumulative = 1.36339e-18
ExecutionTime = 2.2 s  ClockTime = 3 s

Time = 0.01225

Courant Number mean: 0.0500219 max: 0.179816
smoothSolver:  Solving for Ux, Initial residual = 0.00117915, Final residual = 8.09195e-07, No Iterations 1
smoothSolver:  Solving for Uy, Initial residual = 0.00333431, Final residual = 8.83512e-06, No Iterations 1
DICPCG:  Solving for p, Initial residual = 0.00317218, Final residual = 0.000151202, No Iterations 104
time step continuity errors : sum local = 2.83608e-10, global = 9.49675e-19, cumulative = 2.31307e-18
DICPCG:  Solving for p, Initial residual = 0.000294763, Final residual = 8.7701e-07, No Iterations 78
time step continuity errors : sum local = 1.78325e-12, global = 3.77058e-19, cumulative = 2.69013e-18
ExecutionTime = 2.25 s  ClockTime = 3 s

Time = 0.0125

Courant Number mean: 0.0500225 max: 0.179736
smoothSolver:  Solving for Ux, Initial residual = 0.0011764, Final residual = 8.11703e-07, No Iterations 1
smoothSolver:  Solving for Uy, Initial residual = 0.0033703, Final residual = 8.92009e-06, No Iterations 1
DICPCG:  Solving for p, Initial residual = 0.00323716, Final residual = 0.000152159, No Iterations 104
time step continuity errors : sum local = 2.93898e-10, global = 7.13378e-20, cumulative = 2.76146e-18
DICPCG:  Solving for p, Initial residual = 0.000293576, Final residual = 9.67295e-07, No Iterations 107
time step continuity errors : sum local = 1.92906e-12, global = -6.66791e-20, cumulative = 2.69478e-18
ExecutionTime = 2.3 s  ClockTime = 3 s

Time = 0.01275

Courant Number mean: 0.0500232 max: 0.1796
smoothSolver:  Solving for Ux, Initial residual = 0.00117871, Final residual = 8.18044e-07, No Iterations 1
smoothSolver:  Solving for Uy, Initial residual = 0.00341496, Final residual = 9.02704e-06, No Iterations 1
DICPCG:  Solving for p, Initial residual = 0.00384404, Final residual = 0.000172533, No Iterations 104
time step continuity errors : sum local = 3.45647e-10, global = -7.77792e-19, cumulative = 1.91699e-18
DICPCG:  Solving for p, Initial residual = 0.000317307, Final residual = 8.96923e-07, No Iterations 118
time step continuity errors : sum local = 1.89195e-12, global = 1.18215e-19, cumulative = 2.03521e-18
ExecutionTime = 2.35 s  ClockTime = 3 s

Time = 0.013

Courant Number mean: 0.050024 max: 0.179415
smoothSolver:  Solving for Ux, Initial residual = 0.00119889, Final residual = 8.38759e-07, No Iterations 1
smoothSolver:  Solving for Uy, Initial residual = 0.00351122, Final residual = 9.25141e-06, No Iterations 1
DICPCG:  Solving for p, Initial residual = 0.00549994, Final residual = 0.000255255, No Iterations 107
time step continuity errors : sum local = 5.39943e-10, global = 2.31584e-19, cumulative = 2.26679e-18
DICPCG:  Solving for p, Initial residual = 0.000402693, Final residual = 9.41303e-07, No Iterations 120
time step continuity errors : sum local = 2.379e-12, global = -2.51161e-19, cumulative = 2.01563e-18
ExecutionTime = 2.39 s  ClockTime = 3 s

Time = 0.01325

Courant Number mean: 0.050025 max: 0.179188
smoothSolver:  Solving for Ux, Initial residual = 0.00133146, Final residual = 9.52278e-07, No Iterations 1
smoothSolver:  Solving for Uy, Initial residual = 0.00397707, Final residual = 3.49882e-08, No Iterations 2
DICPCG:  Solving for p, Initial residual = 0.00395829, Final residual = 0.000184111, No Iterations 105
time step continuity errors : sum local = 4.69567e-10, global = 3.29508e-20, cumulative = 2.04858e-18
DICPCG:  Solving for p, Initial residual = 0.000397875, Final residual = 9.18778e-07, No Iterations 121
time step continuity errors : sum local = 2.12311e-12, global = -1.22181e-19, cumulative = 1.9264e-18
ExecutionTime = 2.44 s  ClockTime = 3 s

Time = 0.0135

Courant Number mean: 0.050026 max: 0.178919
smoothSolver:  Solving for Ux, Initial residual = 0.0012238, Final residual = 8.68129e-07, No Iterations 1
smoothSolver:  Solving for Uy, Initial residual = 0.00361942, Final residual = 9.48352e-06, No Iterations 1
DICPCG:  Solving for p, Initial residual = 0.00591133, Final residual = 0.000247362, No Iterations 105
time step continuity errors : sum local = 5.71018e-10, global = 3.53097e-19, cumulative = 2.2795e-18
DICPCG:  Solving for p, Initial residual = 0.000520153, Final residual = 8.85212e-07, No Iterations 121
time step continuity errors : sum local = 1.76043e-12, global = -1.21547e-19, cumulative = 2.15795e-18
ExecutionTime = 2.49 s  ClockTime = 3 s

Time = 0.01375

Courant Number mean: 0.0500267 max: 0.178616
smoothSolver:  Solving for Ux, Initial residual = 0.00108955, Final residual = 7.6339e-07, No Iterations 1
smoothSolver:  Solving for Uy, Initial residual = 0.00319256, Final residual = 8.50844e-06, No Iterations 1
DICPCG:  Solving for p, Initial residual = 0.00405139, Final residual = 0.000192326, No Iterations 103
time step continuity errors : sum local = 3.80808e-10, global = -5.14147e-20, cumulative = 2.10654e-18
DICPCG:  Solving for p, Initial residual = 0.000361499, Final residual = 8.72841e-07, No Iterations 115
time step continuity errors : sum local = 1.64002e-12, global = 4.9357e-19, cumulative = 2.60011e-18
ExecutionTime = 2.53 s  ClockTime = 3 s

Time = 0.014

Courant Number mean: 0.0500274 max: 0.178284
smoothSolver:  Solving for Ux, Initial residual = 0.00103539, Final residual = 7.24446e-07, No Iterations 1
smoothSolver:  Solving for Uy, Initial residual = 0.00303278, Final residual = 8.11904e-06, No Iterations 1
DICPCG:  Solving for p, Initial residual = 0.00379623, Final residual = 0.000188566, No Iterations 57
time step continuity errors : sum local = 4.14594e-10, global = -1.10339e-19, cumulative = 2.48977e-18
DICPCG:  Solving for p, Initial residual = 0.000352461, Final residual = 9.96349e-07, No Iterations 115
time step continuity errors : sum local = 1.85887e-12, global = -5.77882e-21, cumulative = 2.48399e-18
ExecutionTime = 2.58 s  ClockTime = 3 s

Time = 0.01425

Courant Number mean: 0.050028 max: 0.177932
smoothSolver:  Solving for Ux, Initial residual = 0.00100568, Final residual = 7.04938e-07, No Iterations 1
smoothSolver:  Solving for Uy, Initial residual = 0.00295692, Final residual = 7.89747e-06, No Iterations 1
DICPCG:  Solving for p, Initial residual = 0.00387404, Final residual = 0.000189827, No Iterations 48
time step continuity errors : sum local = 3.86624e-10, global = -6.40691e-20, cumulative = 2.41992e-18
DICPCG:  Solving for p, Initial residual = 0.000355103, Final residual = 7.86968e-07, No Iterations 112
time step continuity errors : sum local = 1.44297e-12, global = 2.75294e-19, cumulative = 2.69521e-18
ExecutionTime = 2.61 s  ClockTime = 3 s

Time = 0.0145

Courant Number mean: 0.0500286 max: 0.177566
smoothSolver:  Solving for Ux, Initial residual = 0.000982636, Final residual = 6.90726e-07, No Iterations 1
smoothSolver:  Solving for Uy, Initial residual = 0.00291142, Final residual = 7.71899e-06, No Iterations 1
DICPCG:  Solving for p, Initial residual = 0.00378868, Final residual = 0.000182231, No Iterations 42
time step continuity errors : sum local = 3.60585e-10, global = -8.15638e-20, cumulative = 2.61365e-18
DICPCG:  Solving for p, Initial residual = 0.00034455, Final residual = 9.17116e-07, No Iterations 117
time step continuity errors : sum local = 1.67459e-12, global = 1.67599e-21, cumulative = 2.61532e-18
ExecutionTime = 2.64 s  ClockTime = 3 s

Time = 0.01475

Courant Number mean: 0.0500292 max: 0.177193
smoothSolver:  Solving for Ux, Initial residual = 0.000961992, Final residual = 6.78238e-07, No Iterations 1
smoothSolver:  Solving for Uy, Initial residual = 0.00288045, Final residual = 7.55576e-06, No Iterations 1
DICPCG:  Solving for p, Initial residual = 0.00390664, Final residual = 0.000169278, No Iterations 41
time step continuity errors : sum local = 3.27237e-10, global = -3.60343e-19, cumulative = 2.25498e-18
DICPCG:  Solving for p, Initial residual = 0.000332493, Final residual = 8.82948e-07, No Iterations 117
time step continuity errors : sum local = 1.59209e-12, global = -2.27651e-20, cumulative = 2.23222e-18
ExecutionTime = 2.69 s  ClockTime = 3 s

Time = 0.015

Courant Number mean: 0.0500298 max: 0.176819
smoothSolver:  Solving for Ux, Initial residual = 0.000943531, Final residual = 6.67809e-07, No Iterations 1
smoothSolver:  Solving for Uy, Initial residual = 0.00285408, Final residual = 7.40521e-06, No Iterations 1
DICPCG:  Solving for p, Initial residual = 0.00423477, Final residual = 0.000201931, No Iterations 7
time step continuity errors : sum local = 3.61768e-10, global = 4.41174e-19, cumulative = 2.67339e-18
DICPCG:  Solving for p, Initial residual = 0.000343251, Final residual = 8.83052e-07, No Iterations 122
time step continuity errors : sum local = 1.58592e-12, global = 4.99324e-19, cumulative = 3.17271e-18
ExecutionTime = 2.75 s  ClockTime = 4 s

Time = 0.01525

Courant Number mean: 0.0500304 max: 0.176449
smoothSolver:  Solving for Ux, Initial residual = 0.000927139, Final residual = 6.58567e-07, No Iterations 1
smoothSolver:  Solving for Uy, Initial residual = 0.00282981, Final residual = 7.26991e-06, No Iterations 1
DICPCG:  Solving for p, Initial residual = 0.00498706, Final residual = 0.000202401, No Iterations 6
time step continuity errors : sum local = 3.6105e-10, global = 1.12886e-19, cumulative = 3.2856e-18
DICPCG:  Solving for p, Initial residual = 0.000365628, Final residual = 9.01163e-07, No Iterations 123
time step continuity errors : sum local = 1.61834e-12, global = -2.59381e-19, cumulative = 3.02622e-18
ExecutionTime = 2.78 s  ClockTime = 4 s

Time = 0.0155

Courant Number mean: 0.050031 max: 0.17609
smoothSolver:  Solving for Ux, Initial residual = 0.000913217, Final residual = 6.50745e-07, No Iterations 1
smoothSolver:  Solving for Uy, Initial residual = 0.00280928, Final residual = 7.15668e-06, No Iterations 1
DICPCG:  Solving for p, Initial residual = 0.00561953, Final residual = 0.00022567, No Iterations 6
time step continuity errors : sum local = 4.02628e-10, global = 1.19185e-19, cumulative = 3.1454e-18
DICPCG:  Solving for p, Initial residual = 0.00040093, Final residual = 9.44989e-07, No Iterations 124
time step continuity errors : sum local = 1.69695e-12, global = -8.61056e-20, cumulative = 3.0593e-18
ExecutionTime = 2.82 s  ClockTime = 4 s

Time = 0.01575

Courant Number mean: 0.0500316 max: 0.175749
smoothSolver:  Solving for Ux, Initial residual = 0.000902823, Final residual = 6.45221e-07, No Iterations 1
smoothSolver:  Solving for Uy, Initial residual = 0.00279585, Final residual = 7.08018e-06, No Iterations 1
DICPCG:  Solving for p, Initial residual = 0.0056903, Final residual = 0.000237849, No Iterations 44
time step continuity errors : sum local = 4.61955e-10, global = -5.10823e-19, cumulative = 2.54848e-18
DICPCG:  Solving for p, Initial residual = 0.000448572, Final residual = 8.89299e-07, No Iterations 119
time step continuity errors : sum local = 1.60282e-12, global = -4.36728e-19, cumulative = 2.11175e-18
ExecutionTime = 2.85 s  ClockTime = 4 s

Time = 0.016

Courant Number mean: 0.0500322 max: 0.175429
smoothSolver:  Solving for Ux, Initial residual = 0.000897683, Final residual = 6.43595e-07, No Iterations 1
smoothSolver:  Solving for Uy, Initial residual = 0.00279589, Final residual = 7.05067e-06, No Iterations 1
DICPCG:  Solving for p, Initial residual = 0.00592976, Final residual = 0.00028795, No Iterations 53
time step continuity errors : sum local = 6.09067e-10, global = 2.22882e-19, cumulative = 2.33463e-18
DICPCG:  Solving for p, Initial residual = 0.000525443, Final residual = 8.78546e-07, No Iterations 120
time step continuity errors : sum local = 1.61175e-12, global = -6.52797e-19, cumulative = 1.68183e-18
ExecutionTime = 2.89 s  ClockTime = 4 s

Time = 0.01625

Courant Number mean: 0.0500329 max: 0.175137
smoothSolver:  Solving for Ux, Initial residual = 0.00090164, Final residual = 6.49108e-07, No Iterations 1
smoothSolver:  Solving for Uy, Initial residual = 0.00282185, Final residual = 7.10336e-06, No Iterations 1
DICPCG:  Solving for p, Initial residual = 0.00607636, Final residual = 0.000271233, No Iterations 103
time step continuity errors : sum local = 5.09857e-10, global = -3.94831e-19, cumulative = 1.287e-18
DICPCG:  Solving for p, Initial residual = 0.000607777, Final residual = 8.49171e-07, No Iterations 122
time step continuity errors : sum local = 1.69117e-12, global = -3.58734e-19, cumulative = 9.28267e-19
ExecutionTime = 2.93 s  ClockTime = 4 s

Time = 0.0165

Courant Number mean: 0.0500337 max: 0.174879
smoothSolver:  Solving for Ux, Initial residual = 0.000924155, Final residual = 6.69554e-07, No Iterations 1
smoothSolver:  Solving for Uy, Initial residual = 0.00291016, Final residual = 7.32106e-06, No Iterations 1
DICPCG:  Solving for p, Initial residual = 0.00911249, Final residual = 0.000396084, No Iterations 105
time step continuity errors : sum local = 7.88815e-10, global = -4.95039e-20, cumulative = 8.78763e-19
DICPCG:  Solving for p, Initial residual = 0.000692678, Final residual = 8.18521e-07, No Iterations 123
time step continuity errors : sum local = 1.82337e-12, global = 2.0095e-19, cumulative = 1.07971e-18
ExecutionTime = 2.98 s  ClockTime = 4 s

Time = 0.01675

Courant Number mean: 0.0500347 max: 0.174663
smoothSolver:  Solving for Ux, Initial residual = 0.000988069, Final residual = 7.2391e-07, No Iterations 1
smoothSolver:  Solving for Uy, Initial residual = 0.00313186, Final residual = 7.90441e-06, No Iterations 1
DICPCG:  Solving for p, Initial residual = 0.00765751, Final residual = 0.00034747, No Iterations 107
time step continuity errors : sum local = 7.708e-10, global = 4.8539e-19, cumulative = 1.5651e-18
DICPCG:  Solving for p, Initial residual = 0.000625219, Final residual = 9.90802e-07, No Iterations 122
time step continuity errors : sum local = 2.52206e-12, global = 9.15831e-20, cumulative = 1.65669e-18
ExecutionTime = 3.03 s  ClockTime = 4 s

Time = 0.017

Courant Number mean: 0.0500358 max: 0.174498
smoothSolver:  Solving for Ux, Initial residual = 0.001082, Final residual = 8.03054e-07, No Iterations 1
smoothSolver:  Solving for Uy, Initial residual = 0.00345279, Final residual = 8.804e-06, No Iterations 1
DICPCG:  Solving for p, Initial residual = 0.00739178, Final residual = 0.00029341, No Iterations 105
time step continuity errors : sum local = 7.4251e-10, global = 3.44768e-20, cumulative = 1.69116e-18
DICPCG:  Solving for p, Initial residual = 0.000558709, Final residual = 8.60992e-07, No Iterations 126
time step continuity errors : sum local = 2.41408e-12, global = 2.32051e-19, cumulative = 1.92321e-18
ExecutionTime = 3.08 s  ClockTime = 4 s

Time = 0.01725

Courant Number mean: 0.0500372 max: 0.174372
smoothSolver:  Solving for Ux, Initial residual = 0.00116393, Final residual = 8.72049e-07, No Iterations 1
smoothSolver:  Solving for Uy, Initial residual = 0.00370543, Final residual = 9.29253e-06, No Iterations 1
DICPCG:  Solving for p, Initial residual = 0.00593876, Final residual = 0.00021522, No Iterations 111
time step continuity errors : sum local = 6.07782e-10, global = -3.89741e-19, cumulative = 1.53347e-18
DICPCG:  Solving for p, Initial residual = 0.00100436, Final residual = 8.73116e-07, No Iterations 125
time step continuity errors : sum local = 1.53363e-12, global = 7.46716e-20, cumulative = 1.60815e-18
ExecutionTime = 3.12 s  ClockTime = 4 s

Time = 0.0175

Courant Number mean: 0.0500378 max: 0.17426
smoothSolver:  Solving for Ux, Initial residual = 0.000813765, Final residual = 5.84478e-07, No Iterations 1
smoothSolver:  Solving for Uy, Initial residual = 0.00255463, Final residual = 6.40448e-06, No Iterations 1
DICPCG:  Solving for p, Initial residual = 0.00910423, Final residual = 0.000359228, No Iterations 111
time step continuity errors : sum local = 6.36285e-10, global = -5.57054e-19, cumulative = 1.05109e-18
DICPCG:  Solving for p, Initial residual = 0.00257563, Final residual = 8.74857e-07, No Iterations 127
time step continuity errors : sum local = 6.14848e-13, global = 9.26279e-20, cumulative = 1.14372e-18
ExecutionTime = 3.17 s  ClockTime = 4 s

Time = 0.01775

Courant Number mean: 0.0500377 max: 0.174166
smoothSolver:  Solving for Ux, Initial residual = 0.000476778, Final residual = 3.20044e-07, No Iterations 1
smoothSolver:  Solving for Uy, Initial residual = 0.00156844, Final residual = 3.87822e-06, No Iterations 1
DICPCG:  Solving for p, Initial residual = 0.011255, Final residual = 0.000541869, No Iterations 103
time step continuity errors : sum local = 3.92371e-10, global = 3.27651e-19, cumulative = 1.47137e-18
DICPCG:  Solving for p, Initial residual = 0.00116985, Final residual = 9.66552e-07, No Iterations 124
time step continuity errors : sum local = 6.15914e-13, global = 3.34621e-19, cumulative = 1.80599e-18
ExecutionTime = 3.22 s  ClockTime = 4 s

Time = 0.018

Courant Number mean: 0.0500376 max: 0.174116
smoothSolver:  Solving for Ux, Initial residual = 0.000445063, Final residual = 2.97981e-07, No Iterations 1
smoothSolver:  Solving for Uy, Initial residual = 0.00151553, Final residual = 3.70996e-06, No Iterations 1
DICPCG:  Solving for p, Initial residual = 0.011832, Final residual = 0.000542716, No Iterations 54
time step continuity errors : sum local = 4.13152e-10, global = -3.27089e-19, cumulative = 1.4789e-18
DICPCG:  Solving for p, Initial residual = 0.0010748, Final residual = 7.73322e-07, No Iterations 126
time step continuity errors : sum local = 4.87605e-13, global = -5.3134e-19, cumulative = 9.47561e-19
ExecutionTime = 3.26 s  ClockTime = 4 s

Time = 0.01825

Courant Number mean: 0.0500374 max: 0.174113
smoothSolver:  Solving for Ux, Initial residual = 0.000427803, Final residual = 2.86633e-07, No Iterations 1
smoothSolver:  Solving for Uy, Initial residual = 0.00150767, Final residual = 3.65769e-06, No Iterations 1
DICPCG:  Solving for p, Initial residual = 0.0124467, Final residual = 0.000559758, No Iterations 54
time step continuity errors : sum local = 3.99335e-10, global = -2.54794e-19, cumulative = 6.92767e-19
DICPCG:  Solving for p, Initial residual = 0.00110204, Final residual = 8.94131e-07, No Iterations 125
time step continuity errors : sum local = 5.32217e-13, global = -4.73859e-19, cumulative = 2.18908e-19
ExecutionTime = 3.29 s  ClockTime = 4 s

Time = 0.0185

Courant Number mean: 0.0500372 max: 0.174155
smoothSolver:  Solving for Ux, Initial residual = 0.000411868, Final residual = 2.77239e-07, No Iterations 1
smoothSolver:  Solving for Uy, Initial residual = 0.00150623, Final residual = 3.6301e-06, No Iterations 1
DICPCG:  Solving for p, Initial residual = 0.0136504, Final residual = 0.000646568, No Iterations 55
time step continuity errors : sum local = 4.39597e-10, global = -4.03346e-19, cumulative = -1.84438e-19
DICPCG:  Solving for p, Initial residual = 0.00120523, Final residual = 9.27542e-07, No Iterations 123
time step continuity errors : sum local = 5.17528e-13, global = -4.92859e-20, cumulative = -2.33724e-19
ExecutionTime = 3.34 s  ClockTime = 4 s

Time = 0.01875

Courant Number mean: 0.0500369 max: 0.174241
smoothSolver:  Solving for Ux, Initial residual = 0.0003948, Final residual = 2.68256e-07, No Iterations 1
smoothSolver:  Solving for Uy, Initial residual = 0.00150465, Final residual = 3.60681e-06, No Iterations 1
DICPCG:  Solving for p, Initial residual = 0.0199606, Final residual = 0.000975549, No Iterations 102
time step continuity errors : sum local = 5.16047e-10, global = 4.32033e-19, cumulative = 1.98309e-19
DICPCG:  Solving for p, Initial residual = 0.00200789, Final residual = 8.1395e-07, No Iterations 129
time step continuity errors : sum local = 3.5013e-13, global = -3.19947e-20, cumulative = 1.66314e-19
ExecutionTime = 3.39 s  ClockTime = 4 s

Time = 0.019

Courant Number mean: 0.0500366 max: 0.174368
smoothSolver:  Solving for Ux, Initial residual = 0.000391362, Final residual = 2.70261e-07, No Iterations 1
smoothSolver:  Solving for Uy, Initial residual = 0.00150204, Final residual = 3.53572e-06, No Iterations 1
DICPCG:  Solving for p, Initial residual = 0.0297786, Final residual = 0.00123656, No Iterations 110
time step continuity errors : sum local = 5.34741e-10, global = -4.51129e-20, cumulative = 1.21201e-19
DICPCG:  Solving for p, Initial residual = 0.00120215, Final residual = 8.4518e-07, No Iterations 126
time step continuity errors : sum local = 8.07848e-13, global = 2.07617e-19, cumulative = 3.28818e-19
ExecutionTime = 3.43 s  ClockTime = 4 s

Time = 0.01925

Courant Number mean: 0.0500361 max: 0.174525
smoothSolver:  Solving for Ux, Initial residual = 0.000584486, Final residual = 4.30586e-07, No Iterations 1
smoothSolver:  Solving for Uy, Initial residual = 0.00178408, Final residual = 3.96613e-06, No Iterations 1
DICPCG:  Solving for p, Initial residual = 0.0177556, Final residual = 0.000769731, No Iterations 109
time step continuity errors : sum local = 7.38368e-10, global = -2.41556e-20, cumulative = 3.04663e-19
DICPCG:  Solving for p, Initial residual = 0.00223667, Final residual = 8.94773e-07, No Iterations 129
time step continuity errors : sum local = 5.71341e-13, global = 7.41534e-20, cumulative = 3.78816e-19
ExecutionTime = 3.48 s  ClockTime = 4 s

Time = 0.0195

Courant Number mean: 0.0500361 max: 0.174732
smoothSolver:  Solving for Ux, Initial residual = 0.000406841, Final residual = 2.73581e-07, No Iterations 1
smoothSolver:  Solving for Uy, Initial residual = 0.00154203, Final residual = 3.79089e-06, No Iterations 1
DICPCG:  Solving for p, Initial residual = 0.0204247, Final residual = 0.000955026, No Iterations 104
time step continuity errors : sum local = 6.22668e-10, global = 1.24387e-20, cumulative = 3.91255e-19
DICPCG:  Solving for p, Initial residual = 0.000991923, Final residual = 7.97932e-07, No Iterations 126
time step continuity errors : sum local = 9.57682e-13, global = 9.27734e-20, cumulative = 4.84028e-19
ExecutionTime = 3.53 s  ClockTime = 4 s

Time = 0.01975

Courant Number mean: 0.0500365 max: 0.174978
smoothSolver:  Solving for Ux, Initial residual = 0.000554612, Final residual = 3.87295e-07, No Iterations 1
smoothSolver:  Solving for Uy, Initial residual = 0.00191364, Final residual = 4.68717e-06, No Iterations 1
DICPCG:  Solving for p, Initial residual = 0.0102337, Final residual = 0.000458232, No Iterations 106
time step continuity errors : sum local = 5.48394e-10, global = -2.90156e-19, cumulative = 1.93872e-19
DICPCG:  Solving for p, Initial residual = 0.00140658, Final residual = 9.38107e-07, No Iterations 126
time step continuity errors : sum local = 7.19131e-13, global = 3.26088e-19, cumulative = 5.1996e-19
ExecutionTime = 3.58 s  ClockTime = 4 s

Time = 0.02

Courant Number mean: 0.0500366 max: 0.175253
smoothSolver:  Solving for Ux, Initial residual = 0.000429547, Final residual = 2.91641e-07, No Iterations 1
smoothSolver:  Solving for Uy, Initial residual = 0.00162089, Final residual = 4.02991e-06, No Iterations 1
DICPCG:  Solving for p, Initial residual = 0.0123955, Final residual = 0.000599286, No Iterations 102
time step continuity errors : sum local = 4.51601e-10, global = 6.97507e-20, cumulative = 5.89711e-19
DICPCG:  Solving for p, Initial residual = 0.000969627, Final residual = 8.02742e-07, No Iterations 123
time step continuity errors : sum local = 6.55185e-13, global = -3.45697e-20, cumulative = 5.55141e-19
ExecutionTime = 3.65 s  ClockTime = 4 s

Time = 0.02025

Courant Number mean: 0.0500368 max: 0.175556
smoothSolver:  Solving for Ux, Initial residual = 0.000441686, Final residual = 3.01704e-07, No Iterations 1
smoothSolver:  Solving for Uy, Initial residual = 0.00165953, Final residual = 4.13765e-06, No Iterations 1
DICPCG:  Solving for p, Initial residual = 0.0102667, Final residual = 0.000476352, No Iterations 104
time step continuity errors : sum local = 3.88233e-10, global = 2.09489e-19, cumulative = 7.6463e-19
DICPCG:  Solving for p, Initial residual = 0.000796209, Final residual = 7.79518e-07, No Iterations 122
time step continuity errors : sum local = 7.0755e-13, global = 1.71698e-19, cumulative = 9.36328e-19
ExecutionTime = 3.7 s  ClockTime = 4 s

Time = 0.0205

Courant Number mean: 0.0500369 max: 0.175883
smoothSolver:  Solving for Ux, Initial residual = 0.000462309, Final residual = 3.18452e-07, No Iterations 1
smoothSolver:  Solving for Uy, Initial residual = 0.00171997, Final residual = 4.28833e-06, No Iterations 1
DICPCG:  Solving for p, Initial residual = 0.00932649, Final residual = 0.000461178, No Iterations 104
time step continuity errors : sum local = 4.18687e-10, global = -1.65638e-19, cumulative = 7.7069e-19
DICPCG:  Solving for p, Initial residual = 0.000740094, Final residual = 8.92033e-07, No Iterations 121
time step continuity errors : sum local = 9.12792e-13, global = -2.90287e-19, cumulative = 4.80403e-19
ExecutionTime = 3.75 s  ClockTime = 4 s

Time = 0.02075

Courant Number mean: 0.0500371 max: 0.176229
smoothSolver:  Solving for Ux, Initial residual = 0.000488539, Final residual = 3.39758e-07, No Iterations 1
smoothSolver:  Solving for Uy, Initial residual = 0.00180249, Final residual = 4.46856e-06, No Iterations 1
DICPCG:  Solving for p, Initial residual = 0.00802096, Final residual = 0.000393204, No Iterations 103
time step continuity errors : sum local = 4.01768e-10, global = 2.01537e-19, cumulative = 6.81939e-19
DICPCG:  Solving for p, Initial residual = 0.000826813, Final residual = 9.76282e-07, No Iterations 115
time step continuity errors : sum local = 8.91468e-13, global = -4.38628e-19, cumulative = 2.43311e-19
ExecutionTime = 3.78 s  ClockTime = 5 s

Time = 0.021

Courant Number mean: 0.0500371 max: 0.176584
smoothSolver:  Solving for Ux, Initial residual = 0.000454375, Final residual = 3.14703e-07, No Iterations 1
smoothSolver:  Solving for Uy, Initial residual = 0.00173071, Final residual = 4.21255e-06, No Iterations 1
DICPCG:  Solving for p, Initial residual = 0.00843093, Final residual = 0.000412114, No Iterations 7
time step continuity errors : sum local = 3.76494e-10, global = -3.38936e-19, cumulative = -9.56248e-20
DICPCG:  Solving for p, Initial residual = 0.000660013, Final residual = 8.82641e-07, No Iterations 122
time step continuity errors : sum local = 8.07611e-13, global = -4.62505e-20, cumulative = -1.41875e-19
ExecutionTime = 3.81 s  ClockTime = 5 s

Time = 0.02125

Courant Number mean: 0.0500372 max: 0.176945
smoothSolver:  Solving for Ux, Initial residual = 0.000452906, Final residual = 3.15041e-07, No Iterations 1
smoothSolver:  Solving for Uy, Initial residual = 0.0017485, Final residual = 4.18043e-06, No Iterations 1
DICPCG:  Solving for p, Initial residual = 0.00900689, Final residual = 0.000405376, No Iterations 102
time step continuity errors : sum local = 3.76561e-10, global = -4.35802e-19, cumulative = -5.77678e-19
DICPCG:  Solving for p, Initial residual = 0.000702353, Final residual = 8.93014e-07, No Iterations 122
time step continuity errors : sum local = 8.92663e-13, global = 5.00027e-19, cumulative = -7.76504e-20
ExecutionTime = 3.86 s  ClockTime = 5 s

Time = 0.0215

Courant Number mean: 0.0500372 max: 0.17731
smoothSolver:  Solving for Ux, Initial residual = 0.000466899, Final residual = 3.27067e-07, No Iterations 1
smoothSolver:  Solving for Uy, Initial residual = 0.00180983, Final residual = 4.25539e-06, No Iterations 1
DICPCG:  Solving for p, Initial residual = 0.00918559, Final residual = 0.00043294, No Iterations 103
time step continuity errors : sum local = 4.32319e-10, global = 2.24128e-19, cumulative = 1.46477e-19
DICPCG:  Solving for p, Initial residual = 0.000702184, Final residual = 9.90487e-07, No Iterations 121
time step continuity errors : sum local = 1.09795e-12, global = -3.84899e-19, cumulative = -2.38421e-19
ExecutionTime = 3.9 s  ClockTime = 5 s

Time = 0.02175

Courant Number mean: 0.0500373 max: 0.177673
smoothSolver:  Solving for Ux, Initial residual = 0.000491726, Final residual = 3.47619e-07, No Iterations 1
smoothSolver:  Solving for Uy, Initial residual = 0.00190324, Final residual = 4.41561e-06, No Iterations 1
DICPCG:  Solving for p, Initial residual = 0.0101837, Final residual = 0.000454743, No Iterations 104
time step continuity errors : sum local = 5.04865e-10, global = -2.86858e-19, cumulative = -5.25279e-19
DICPCG:  Solving for p, Initial residual = 0.000763646, Final residual = 8.37419e-07, No Iterations 122
time step continuity errors : sum local = 1.05853e-12, global = 1.33453e-19, cumulative = -3.91826e-19
ExecutionTime = 3.95 s  ClockTime = 5 s

Time = 0.022

Courant Number mean: 0.0500375 max: 0.178032
smoothSolver:  Solving for Ux, Initial residual = 0.000529224, Final residual = 3.78646e-07, No Iterations 1
smoothSolver:  Solving for Uy, Initial residual = 0.00204131, Final residual = 4.68631e-06, No Iterations 1
DICPCG:  Solving for p, Initial residual = 0.0101872, Final residual = 0.000459474, No Iterations 43
time step continuity errors : sum local = 6.42606e-10, global = -3.29591e-20, cumulative = -4.24785e-19
DICPCG:  Solving for p, Initial residual = 0.000858694, Final residual = 8.91479e-07, No Iterations 122
time step continuity errors : sum local = 1.13095e-12, global = -1.58213e-19, cumulative = -5.82998e-19
ExecutionTime = 3.98 s  ClockTime = 5 s

Time = 0.02225

Courant Number mean: 0.0500379 max: 0.178378
smoothSolver:  Solving for Ux, Initial residual = 0.000537139, Final residual = 3.86738e-07, No Iterations 1
smoothSolver:  Solving for Uy, Initial residual = 0.00209661, Final residual = 4.77074e-06, No Iterations 1
DICPCG:  Solving for p, Initial residual = 0.0127385, Final residual = 0.000633143, No Iterations 40
time step continuity errors : sum local = 8.60381e-10, global = -1.88705e-19, cumulative = -7.71702e-19
DICPCG:  Solving for p, Initial residual = 0.00108934, Final residual = 8.98471e-07, No Iterations 124
time step continuity errors : sum local = 1.17724e-12, global = -9.49794e-20, cumulative = -8.66682e-19
ExecutionTime = 4.01 s  ClockTime = 5 s

Time = 0.0225

Courant Number mean: 0.0500382 max: 0.178703
smoothSolver:  Solving for Ux, Initial residual = 0.000528009, Final residual = 3.81452e-07, No Iterations 1
smoothSolver:  Solving for Uy, Initial residual = 0.00210557, Final residual = 4.75489e-06, No Iterations 1
DICPCG:  Solving for p, Initial residual = 0.0146455, Final residual = 0.000727329, No Iterations 107
time step continuity errors : sum local = 9.45484e-10, global = -2.71384e-20, cumulative = -8.9382e-19
DICPCG:  Solving for p, Initial residual = 0.000921213, Final residual = 9.76223e-07, No Iterations 125
time step continuity errors : sum local = 2.02595e-12, global = 4.59495e-19, cumulative = -4.34325e-19
ExecutionTime = 4.04 s  ClockTime = 5 s

Time = 0.02275

Courant Number mean: 0.0500391 max: 0.179012
smoothSolver:  Solving for Ux, Initial residual = 0.000740942, Final residual = 5.57567e-07, No Iterations 1
smoothSolver:  Solving for Uy, Initial residual = 0.00281319, Final residual = 6.36265e-06, No Iterations 1
DICPCG:  Solving for p, Initial residual = 0.00940893, Final residual = 0.00044395, No Iterations 109
time step continuity errors : sum local = 9.30216e-10, global = -6.43364e-20, cumulative = -4.98661e-19
DICPCG:  Solving for p, Initial residual = 0.00235523, Final residual = 8.05398e-07, No Iterations 129
time step continuity errors : sum local = 6.4336e-13, global = 1.31319e-19, cumulative = -3.67342e-19
ExecutionTime = 4.09 s  ClockTime = 5 s

Time = 0.023

Courant Number mean: 0.0500391 max: 0.179282
smoothSolver:  Solving for Ux, Initial residual = 0.000388211, Final residual = 2.75637e-07, No Iterations 1
smoothSolver:  Solving for Uy, Initial residual = 0.00176323, Final residual = 3.86305e-06, No Iterations 1
DICPCG:  Solving for p, Initial residual = 0.0133866, Final residual = 0.000547492, No Iterations 103
time step continuity errors : sum local = 4.34652e-10, global = 1.73161e-19, cumulative = -1.94181e-19
DICPCG:  Solving for p, Initial residual = 0.00130964, Final residual = 8.65791e-07, No Iterations 120
time step continuity errors : sum local = 5.58379e-13, global = 4.3867e-19, cumulative = 2.44489e-19
ExecutionTime = 4.14 s  ClockTime = 5 s

Time = 0.02325

Courant Number mean: 0.0500391 max: 0.179522
smoothSolver:  Solving for Ux, Initial residual = 0.000347815, Final residual = 2.48828e-07, No Iterations 1
smoothSolver:  Solving for Uy, Initial residual = 0.00170058, Final residual = 3.65811e-06, No Iterations 1
DICPCG:  Solving for p, Initial residual = 0.0149146, Final residual = 0.000591254, No Iterations 46
time step continuity errors : sum local = 4.36914e-10, global = -3.93654e-19, cumulative = -1.49164e-19
DICPCG:  Solving for p, Initial residual = 0.00121374, Final residual = 9.58443e-07, No Iterations 123
time step continuity errors : sum local = 6.10811e-13, global = -3.34692e-19, cumulative = -4.83857e-19
ExecutionTime = 4.18 s  ClockTime = 5 s

Time = 0.0235

Courant Number mean: 0.050039 max: 0.179729
smoothSolver:  Solving for Ux, Initial residual = 0.00033691, Final residual = 2.42481e-07, No Iterations 1
smoothSolver:  Solving for Uy, Initial residual = 0.00169616, Final residual = 3.63941e-06, No Iterations 1
DICPCG:  Solving for p, Initial residual = 0.0166239, Final residual = 0.000762019, No Iterations 104
time step continuity errors : sum local = 4.65541e-10, global = -1.07479e-18, cumulative = -1.55865e-18
DICPCG:  Solving for p, Initial residual = 0.00187697, Final residual = 9.1591e-07, No Iterations 126
time step continuity errors : sum local = 4.29273e-13, global = 1.97009e-19, cumulative = -1.36164e-18
ExecutionTime = 4.23 s  ClockTime = 5 s

Time = 0.02375

Courant Number mean: 0.0500389 max: 0.179903
smoothSolver:  Solving for Ux, Initial residual = 0.000310047, Final residual = 2.32859e-07, No Iterations 1
smoothSolver:  Solving for Uy, Initial residual = 0.001703, Final residual = 3.5529e-06, No Iterations 1
DICPCG:  Solving for p, Initial residual = 0.023972, Final residual = 0.00105652, No Iterations 102
time step continuity errors : sum local = 4.87836e-10, global = -1.65475e-19, cumulative = -1.52711e-18
DICPCG:  Solving for p, Initial residual = 0.00122568, Final residual = 9.77461e-07, No Iterations 122
time step continuity errors : sum local = 7.17709e-13, global = 1.9257e-19, cumulative = -1.33455e-18
ExecutionTime = 4.26 s  ClockTime = 5 s

Time = 0.024

Courant Number mean: 0.0500389 max: 0.180042
smoothSolver:  Solving for Ux, Initial residual = 0.000359852, Final residual = 2.55285e-07, No Iterations 1
smoothSolver:  Solving for Uy, Initial residual = 0.00173374, Final residual = 3.8281e-06, No Iterations 1
DICPCG:  Solving for p, Initial residual = 0.0139812, Final residual = 0.000666104, No Iterations 101
time step continuity errors : sum local = 4.91455e-10, global = -3.00937e-20, cumulative = -1.36464e-18
DICPCG:  Solving for p, Initial residual = 0.00101257, Final residual = 9.31876e-07, No Iterations 123
time step continuity errors : sum local = 8.04196e-13, global = 3.07751e-19, cumulative = -1.05689e-18
ExecutionTime = 4.31 s  ClockTime = 5 s

Time = 0.02425

Courant Number mean: 0.050039 max: 0.180145
smoothSolver:  Solving for Ux, Initial residual = 0.00038631, Final residual = 2.73392e-07, No Iterations 1
smoothSolver:  Solving for Uy, Initial residual = 0.00178478, Final residual = 4.00956e-06, No Iterations 1
DICPCG:  Solving for p, Initial residual = 0.0115851, Final residual = 0.000500952, No Iterations 102
time step continuity errors : sum local = 4.31594e-10, global = -2.73933e-19, cumulative = -1.33082e-18
DICPCG:  Solving for p, Initial residual = 0.000918432, Final residual = 8.79596e-07, No Iterations 122
time step continuity errors : sum local = 8.3228e-13, global = 1.23566e-19, cumulative = -1.20726e-18
ExecutionTime = 4.36 s  ClockTime = 5 s

Time = 0.0245

Courant Number mean: 0.0500391 max: 0.180209
smoothSolver:  Solving for Ux, Initial residual = 0.000403892, Final residual = 2.85981e-07, No Iterations 1
smoothSolver:  Solving for Uy, Initial residual = 0.00183326, Final residual = 4.14769e-06, No Iterations 1
DICPCG:  Solving for p, Initial residual = 0.00949046, Final residual = 0.000434954, No Iterations 102
time step continuity errors : sum local = 4.10926e-10, global = -2.80368e-19, cumulative = -1.48762e-18
DICPCG:  Solving for p, Initial residual = 0.000775621, Final residual = 9.72901e-07, No Iterations 121
time step continuity errors : sum local = 9.9023e-13, global = -1.30727e-19, cumulative = -1.61835e-18
ExecutionTime = 4.4 s  ClockTime = 5 s

Time = 0.02475

Courant Number mean: 0.0500393 max: 0.180235
smoothSolver:  Solving for Ux, Initial residual = 0.000418804, Final residual = 2.97031e-07, No Iterations 1
smoothSolver:  Solving for Uy, Initial residual = 0.00188173, Final residual = 4.28058e-06, No Iterations 1
DICPCG:  Solving for p, Initial residual = 0.00857344, Final residual = 0.000376371, No Iterations 102
time step continuity errors : sum local = 3.82655e-10, global = 2.07886e-19, cumulative = -1.41046e-18
DICPCG:  Solving for p, Initial residual = 0.000682972, Final residual = 7.47988e-07, No Iterations 121
time step continuity errors : sum local = 8.07058e-13, global = -3.83351e-19, cumulative = -1.79381e-18
ExecutionTime = 4.45 s  ClockTime = 5 s

Time = 0.025

Courant Number mean: 0.0500395 max: 0.180223
smoothSolver:  Solving for Ux, Initial residual = 0.000430546, Final residual = 3.06021e-07, No Iterations 1
smoothSolver:  Solving for Uy, Initial residual = 0.00192493, Final residual = 4.39694e-06, No Iterations 1
DICPCG:  Solving for p, Initial residual = 0.00973535, Final residual = 0.000454068, No Iterations 44
time step continuity errors : sum local = 5.447e-10, global = 1.86883e-20, cumulative = -1.77513e-18
DICPCG:  Solving for p, Initial residual = 0.000825343, Final residual = 8.02521e-07, No Iterations 120
time step continuity errors : sum local = 8.73163e-13, global = -6.66448e-20, cumulative = -1.84177e-18
ExecutionTime = 4.5 s  ClockTime = 5 s

Time = 0.02525

Courant Number mean: 0.0500397 max: 0.180171
smoothSolver:  Solving for Ux, Initial residual = 0.000435572, Final residual = 3.10164e-07, No Iterations 1
smoothSolver:  Solving for Uy, Initial residual = 0.00195465, Final residual = 4.46331e-06, No Iterations 1
DICPCG:  Solving for p, Initial residual = 0.0122815, Final residual = 0.000516354, No Iterations 99
time step continuity errors : sum local = 5.8043e-10, global = 2.98491e-20, cumulative = -1.81192e-18
DICPCG:  Solving for p, Initial residual = 0.00099853, Final residual = 9.91963e-07, No Iterations 123
time step continuity errors : sum local = 1.00919e-12, global = -3.31295e-19, cumulative = -2.14322e-18
ExecutionTime = 4.54 s  ClockTime = 5 s

Time = 0.0255

Courant Number mean: 0.0500401 max: 0.18008
smoothSolver:  Solving for Ux, Initial residual = 0.000406597, Final residual = 2.88939e-07, No Iterations 1
smoothSolver:  Solving for Uy, Initial residual = 0.00191559, Final residual = 4.3135e-06, No Iterations 1
DICPCG:  Solving for p, Initial residual = 0.0132718, Final residual = 0.000588192, No Iterations 99
time step continuity errors : sum local = 5.96794e-10, global = -2.97449e-19, cumulative = -2.44067e-18
DICPCG:  Solving for p, Initial residual = 0.00113618, Final residual = 8.47587e-07, No Iterations 122
time step continuity errors : sum local = 7.90159e-13, global = -2.0315e-19, cumulative = -2.64382e-18
ExecutionTime = 4.59 s  ClockTime = 5 s

Time = 0.02575

Courant Number mean: 0.0500405 max: 0.179952
smoothSolver:  Solving for Ux, Initial residual = 0.000382023, Final residual = 2.71549e-07, No Iterations 1
smoothSolver:  Solving for Uy, Initial residual = 0.00188454, Final residual = 4.17201e-06, No Iterations 1
DICPCG:  Solving for p, Initial residual = 0.0125935, Final residual = 0.000620254, No Iterations 103
time step continuity errors : sum local = 5.75231e-10, global = -3.93627e-19, cumulative = -3.03744e-18
DICPCG:  Solving for p, Initial residual = 0.00136379, Final residual = 9.02337e-07, No Iterations 122
time step continuity errors : sum local = 7.04287e-13, global = 6.52985e-21, cumulative = -3.03091e-18
ExecutionTime = 4.64 s  ClockTime = 5 s

Time = 0.026

Courant Number mean: 0.0500408 max: 0.179784
smoothSolver:  Solving for Ux, Initial residual = 0.000341022, Final residual = 2.43198e-07, No Iterations 1
smoothSolver:  Solving for Uy, Initial residual = 0.0018114, Final residual = 3.89029e-06, No Iterations 1
DICPCG:  Solving for p, Initial residual = 0.0194009, Final residual = 0.000918045, No Iterations 107
time step continuity errors : sum local = 7.08186e-10, global = 2.26025e-19, cumulative = -2.80489e-18
DICPCG:  Solving for p, Initial residual = 0.00092015, Final residual = 7.46939e-07, No Iterations 124
time step continuity errors : sum local = 9.40348e-13, global = -3.4064e-21, cumulative = -2.8083e-18
ExecutionTime = 4.68 s  ClockTime = 5 s

Time = 0.02625

Courant Number mean: 0.0500413 max: 0.179592
smoothSolver:  Solving for Ux, Initial residual = 0.000459678, Final residual = 3.32472e-07, No Iterations 1
smoothSolver:  Solving for Uy, Initial residual = 0.00212734, Final residual = 4.81173e-06, No Iterations 1
DICPCG:  Solving for p, Initial residual = 0.00730061, Final residual = 0.000301184, No Iterations 105
time step continuity errors : sum local = 3.82542e-10, global = 5.28994e-19, cumulative = -2.2793e-18
DICPCG:  Solving for p, Initial residual = 0.000497067, Final residual = 9.23743e-07, No Iterations 115
time step continuity errors : sum local = 1.32875e-12, global = -2.14623e-19, cumulative = -2.49392e-18
ExecutionTime = 4.73 s  ClockTime = 6 s

Time = 0.0265

Courant Number mean: 0.0500419 max: 0.179372
smoothSolver:  Solving for Ux, Initial residual = 0.000498743, Final residual = 3.6403e-07, No Iterations 1
smoothSolver:  Solving for Uy, Initial residual = 0.00225611, Final residual = 5.14074e-06, No Iterations 1
DICPCG:  Solving for p, Initial residual = 0.00572687, Final residual = 0.000271368, No Iterations 100
time step continuity errors : sum local = 3.89995e-10, global = 6.69819e-19, cumulative = -1.8241e-18
DICPCG:  Solving for p, Initial residual = 0.00046187, Final residual = 9.99101e-07, No Iterations 115
time step continuity errors : sum local = 1.53655e-12, global = 1.78009e-19, cumulative = -1.6461e-18
ExecutionTime = 4.78 s  ClockTime = 6 s

Time = 0.02675

Courant Number mean: 0.0500425 max: 0.179127
smoothSolver:  Solving for Ux, Initial residual = 0.000518011, Final residual = 3.79917e-07, No Iterations 1
smoothSolver:  Solving for Uy, Initial residual = 0.00231833, Final residual = 5.29809e-06, No Iterations 1
DICPCG:  Solving for p, Initial residual = 0.00562174, Final residual = 0.000246059, No Iterations 100
time step continuity errors : sum local = 3.78355e-10, global = -6.06681e-20, cumulative = -1.70676e-18
DICPCG:  Solving for p, Initial residual = 0.000429302, Final residual = 8.67354e-07, No Iterations 117
time step continuity errors : sum local = 1.44707e-12, global = -2.94216e-19, cumulative = -2.00098e-18
ExecutionTime = 4.83 s  ClockTime = 6 s

Time = 0.027

Courant Number mean: 0.0500433 max: 0.17886
smoothSolver:  Solving for Ux, Initial residual = 0.000545808, Final residual = 4.02617e-07, No Iterations 1
smoothSolver:  Solving for Uy, Initial residual = 0.00239668, Final residual = 5.4727e-06, No Iterations 1
DICPCG:  Solving for p, Initial residual = 0.0070037, Final residual = 0.00034901, No Iterations 106
time step continuity errors : sum local = 5.84025e-10, global = 3.00549e-20, cumulative = -1.97092e-18
DICPCG:  Solving for p, Initial residual = 0.000506135, Final residual = 8.7667e-07, No Iterations 121
time step continuity errors : sum local = 1.82158e-12, global = -1.73073e-19, cumulative = -2.144e-18
ExecutionTime = 4.86 s  ClockTime = 6 s

Time = 0.02725

Courant Number mean: 0.0500442 max: 0.178575
[...]
DICPCG:  Solving for p, Initial residual = 0.000644383, Final residual = 9.94301e-07, No Iterations 119
time step continuity errors : sum local = 1.55431e-12, global = -3.76918e-19, cumulative = 5.18064e-18
ExecutionTime = 162.48 s  ClockTime = 166 s

Time = 0.9935

Courant Number mean: 0.0502157 max: 0.185316
smoothSolver:  Solving for Ux, Initial residual = 0.000104188, Final residual = 1.00392e-07, No Iterations 1
smoothSolver:  Solving for Uy, Initial residual = 0.00170473, Final residual = 2.41877e-06, No Iterations 1
DICPCG:  Solving for p, Initial residual = 0.00872389, Final residual = 0.000414631, No Iterations 112
time step continuity errors : sum local = 6.54811e-10, global = -1.87501e-19, cumulative = 4.99314e-18
DICPCG:  Solving for p, Initial residual = 0.000491888, Final residual = 8.28111e-07, No Iterations 123
time step continuity errors : sum local = 1.81675e-12, global = 3.18728e-19, cumulative = 5.31187e-18
ExecutionTime = 162.53 s  ClockTime = 166 s

Time = 0.99375

Courant Number mean: 0.0502148 max: 0.185329
smoothSolver:  Solving for Ux, Initial residual = 0.000140168, Final residual = 1.30595e-07, No Iterations 1
smoothSolver:  Solving for Uy, Initial residual = 0.00180533, Final residual = 2.58194e-06, No Iterations 1
DICPCG:  Solving for p, Initial residual = 0.00752932, Final residual = 0.000319155, No Iterations 112
time step continuity errors : sum local = 7.03451e-10, global = 1.47266e-20, cumulative = 5.3266e-18
DICPCG:  Solving for p, Initial residual = 0.00079368, Final residual = 9.08191e-07, No Iterations 124
time step continuity errors : sum local = 1.44306e-12, global = 3.67326e-19, cumulative = 5.69392e-18
ExecutionTime = 162.58 s  ClockTime = 166 s

Time = 0.994

Courant Number mean: 0.050214 max: 0.185328
smoothSolver:  Solving for Ux, Initial residual = 0.000109874, Final residual = 1.05539e-07, No Iterations 1
smoothSolver:  Solving for Uy, Initial residual = 0.00176939, Final residual = 2.66828e-06, No Iterations 1
DICPCG:  Solving for p, Initial residual = 0.00873677, Final residual = 0.000393305, No Iterations 106
time step continuity errors : sum local = 6.20884e-10, global = -7.7741e-19, cumulative = 4.91651e-18
DICPCG:  Solving for p, Initial residual = 0.00073641, Final residual = 9.0116e-07, No Iterations 122
time step continuity errors : sum local = 1.17534e-12, global = 1.99929e-19, cumulative = 5.11644e-18
ExecutionTime = 162.63 s  ClockTime = 167 s

Time = 0.99425

Courant Number mean: 0.0502134 max: 0.185317
smoothSolver:  Solving for Ux, Initial residual = 9.33795e-05, Final residual = 9.19589e-08, No Iterations 1
smoothSolver:  Solving for Uy, Initial residual = 0.00173877, Final residual = 2.58298e-06, No Iterations 1
DICPCG:  Solving for p, Initial residual = 0.0142902, Final residual = 0.000665135, No Iterations 106
time step continuity errors : sum local = 8.63053e-10, global = 3.35044e-19, cumulative = 5.45149e-18
DICPCG:  Solving for p, Initial residual = 0.00130473, Final residual = 8.33001e-07, No Iterations 126
time step continuity errors : sum local = 8.57484e-13, global = 1.01585e-19, cumulative = 5.55307e-18
ExecutionTime = 162.67 s  ClockTime = 167 s

Time = 0.9945

Courant Number mean: 0.050213 max: 0.185301
smoothSolver:  Solving for Ux, Initial residual = 5.75464e-05, Final residual = 6.5228e-08, No Iterations 1
smoothSolver:  Solving for Uy, Initial residual = 0.00165549, Final residual = 2.24615e-06, No Iterations 1
DICPCG:  Solving for p, Initial residual = 0.011611, Final residual = 0.000569685, No Iterations 110
time step continuity errors : sum local = 5.86293e-10, global = -4.12593e-19, cumulative = 5.14048e-18
DICPCG:  Solving for p, Initial residual = 0.000895907, Final residual = 7.44386e-07, No Iterations 124
time step continuity errors : sum local = 7.95647e-13, global = 1.97694e-19, cumulative = 5.33817e-18
ExecutionTime = 162.72 s  ClockTime = 167 s

Time = 0.99475

Courant Number mean: 0.0502126 max: 0.185276
smoothSolver:  Solving for Ux, Initial residual = 6.73345e-05, Final residual = 7.06151e-08, No Iterations 1
smoothSolver:  Solving for Uy, Initial residual = 0.00163055, Final residual = 2.185e-06, No Iterations 1
DICPCG:  Solving for p, Initial residual = 0.0107941, Final residual = 0.000528611, No Iterations 111
time step continuity errors : sum local = 5.71952e-10, global = 4.6579e-19, cumulative = 5.80396e-18
DICPCG:  Solving for p, Initial residual = 0.000840614, Final residual = 8.88501e-07, No Iterations 122
time step continuity errors : sum local = 9.84749e-13, global = -1.38755e-19, cumulative = 5.66521e-18
ExecutionTime = 162.77 s  ClockTime = 167 s

Time = 0.995

Courant Number mean: 0.0502123 max: 0.18529
smoothSolver:  Solving for Ux, Initial residual = 5.11983e-05, Final residual = 6.10193e-08, No Iterations 1
smoothSolver:  Solving for Uy, Initial residual = 0.00162371, Final residual = 2.12605e-06, No Iterations 1
DICPCG:  Solving for p, Initial residual = 0.00861146, Final residual = 0.000378318, No Iterations 45
time step continuity errors : sum local = 4.3845e-10, global = -2.01989e-19, cumulative = 5.46322e-18
DICPCG:  Solving for p, Initial residual = 0.000661409, Final residual = 9.12342e-07, No Iterations 123
time step continuity errors : sum local = 1.01704e-12, global = 6.15646e-19, cumulative = 6.07886e-18
ExecutionTime = 162.85 s  ClockTime = 167 s

Time = 0.99525

Courant Number mean: 0.050212 max: 0.185294
smoothSolver:  Solving for Ux, Initial residual = 4.96737e-05, Final residual = 5.99286e-08, No Iterations 1
smoothSolver:  Solving for Uy, Initial residual = 0.00161165, Final residual = 2.08589e-06, No Iterations 1
DICPCG:  Solving for p, Initial residual = 0.00895225, Final residual = 0.000441534, No Iterations 99
time step continuity errors : sum local = 4.95435e-10, global = -2.07142e-19, cumulative = 5.87172e-18
DICPCG:  Solving for p, Initial residual = 0.000663451, Final residual = 9.2273e-07, No Iterations 123
time step continuity errors : sum local = 1.09768e-12, global = -5.08107e-19, cumulative = 5.36362e-18
ExecutionTime = 162.89 s  ClockTime = 167 s

Time = 0.9955

Courant Number mean: 0.0502117 max: 0.18529
smoothSolver:  Solving for Ux, Initial residual = 4.7298e-05, Final residual = 5.88987e-08, No Iterations 1
smoothSolver:  Solving for Uy, Initial residual = 0.00160289, Final residual = 2.04713e-06, No Iterations 1
DICPCG:  Solving for p, Initial residual = 0.00793142, Final residual = 0.000379779, No Iterations 42
time step continuity errors : sum local = 4.83624e-10, global = -4.06769e-20, cumulative = 5.32294e-18
DICPCG:  Solving for p, Initial residual = 0.000580494, Final residual = 8.86709e-07, No Iterations 119
time step continuity errors : sum local = 1.05032e-12, global = 8.05297e-20, cumulative = 5.40347e-18
ExecutionTime = 162.92 s  ClockTime = 167 s

Time = 0.99575

Courant Number mean: 0.0502114 max: 0.185275
smoothSolver:  Solving for Ux, Initial residual = 4.7918e-05, Final residual = 5.94039e-08, No Iterations 1
smoothSolver:  Solving for Uy, Initial residual = 0.00160947, Final residual = 2.0818e-06, No Iterations 1
DICPCG:  Solving for p, Initial residual = 0.0075762, Final residual = 0.00036795, No Iterations 46
time step continuity errors : sum local = 5.05554e-10, global = 1.05914e-19, cumulative = 5.50938e-18
DICPCG:  Solving for p, Initial residual = 0.000573564, Final residual = 9.07921e-07, No Iterations 121
time step continuity errors : sum local = 1.06964e-12, global = -1.42499e-19, cumulative = 5.36688e-18
ExecutionTime = 162.97 s  ClockTime = 167 s

Time = 0.996

Courant Number mean: 0.0502112 max: 0.185249
smoothSolver:  Solving for Ux, Initial residual = 4.71317e-05, Final residual = 5.94751e-08, No Iterations 1
smoothSolver:  Solving for Uy, Initial residual = 0.00161165, Final residual = 2.08549e-06, No Iterations 1
DICPCG:  Solving for p, Initial residual = 0.00850523, Final residual = 0.000365798, No Iterations 101
time step continuity errors : sum local = 4.44053e-10, global = 3.14809e-20, cumulative = 5.39836e-18
DICPCG:  Solving for p, Initial residual = 0.000561775, Final residual = 9.37316e-07, No Iterations 120
time step continuity errors : sum local = 1.22013e-12, global = 1.2827e-19, cumulative = 5.52663e-18
ExecutionTime = 163 s  ClockTime = 167 s

Time = 0.99625

Courant Number mean: 0.0502111 max: 0.185215
smoothSolver:  Solving for Ux, Initial residual = 4.68321e-05, Final residual = 6.00913e-08, No Iterations 1
smoothSolver:  Solving for Uy, Initial residual = 0.00161277, Final residual = 2.06818e-06, No Iterations 1
DICPCG:  Solving for p, Initial residual = 0.00872513, Final residual = 0.000416097, No Iterations 98
time step continuity errors : sum local = 5.45109e-10, global = -8.63375e-20, cumulative = 5.4403e-18
DICPCG:  Solving for p, Initial residual = 0.000582442, Final residual = 9.35982e-07, No Iterations 119
time step continuity errors : sum local = 1.31961e-12, global = 2.25973e-19, cumulative = 5.66627e-18
ExecutionTime = 163.05 s  ClockTime = 167 s

Time = 0.9965

Courant Number mean: 0.050211 max: 0.185172
smoothSolver:  Solving for Ux, Initial residual = 4.90747e-05, Final residual = 6.25035e-08, No Iterations 1
smoothSolver:  Solving for Uy, Initial residual = 0.00161764, Final residual = 2.04145e-06, No Iterations 1
DICPCG:  Solving for p, Initial residual = 0.00935762, Final residual = 0.000396041, No Iterations 114
time step continuity errors : sum local = 5.58996e-10, global = -4.9507e-22, cumulative = 5.66577e-18
DICPCG:  Solving for p, Initial residual = 0.000508609, Final residual = 8.47933e-07, No Iterations 123
time step continuity errors : sum local = 1.79976e-12, global = 2.82919e-19, cumulative = 5.94869e-18
ExecutionTime = 163.1 s  ClockTime = 167 s

Time = 0.99675

Courant Number mean: 0.0502113 max: 0.185124
smoothSolver:  Solving for Ux, Initial residual = 9.26394e-05, Final residual = 9.78563e-08, No Iterations 1
smoothSolver:  Solving for Uy, Initial residual = 0.00171737, Final residual = 2.02333e-06, No Iterations 1
DICPCG:  Solving for p, Initial residual = 0.00662257, Final residual = 0.00029966, No Iterations 114
time step continuity errors : sum local = 6.36017e-10, global = -4.68102e-20, cumulative = 5.90188e-18
DICPCG:  Solving for p, Initial residual = 0.000844332, Final residual = 8.75633e-07, No Iterations 126
time step continuity errors : sum local = 1.21672e-12, global = -5.9287e-19, cumulative = 5.30901e-18
ExecutionTime = 163.14 s  ClockTime = 167 s

Time = 0.997

Courant Number mean: 0.0502112 max: 0.185066
smoothSolver:  Solving for Ux, Initial residual = 4.8244e-05, Final residual = 6.13281e-08, No Iterations 1
smoothSolver:  Solving for Uy, Initial residual = 0.00159662, Final residual = 1.99601e-06, No Iterations 1
DICPCG:  Solving for p, Initial residual = 0.00613797, Final residual = 0.000282334, No Iterations 19
time step continuity errors : sum local = 4.08949e-10, global = -6.02289e-19, cumulative = 4.70672e-18
DICPCG:  Solving for p, Initial residual = 0.000450625, Final residual = 9.21855e-07, No Iterations 116
time step continuity errors : sum local = 1.27092e-12, global = -1.40099e-19, cumulative = 4.56662e-18
ExecutionTime = 163.18 s  ClockTime = 167 s

Time = 0.99725

Courant Number mean: 0.0502111 max: 0.185001
smoothSolver:  Solving for Ux, Initial residual = 4.80823e-05, Final residual = 6.09784e-08, No Iterations 1
smoothSolver:  Solving for Uy, Initial residual = 0.00158613, Final residual = 1.97257e-06, No Iterations 1
DICPCG:  Solving for p, Initial residual = 0.00576563, Final residual = 0.000281205, No Iterations 55
time step continuity errors : sum local = 4.4904e-10, global = 3.2978e-19, cumulative = 4.8964e-18
DICPCG:  Solving for p, Initial residual = 0.000447544, Final residual = 8.16833e-07, No Iterations 121
time step continuity errors : sum local = 1.12629e-12, global = 3.07897e-19, cumulative = 5.2043e-18
ExecutionTime = 163.22 s  ClockTime = 167 s

Time = 0.9975

Courant Number mean: 0.050211 max: 0.184929
smoothSolver:  Solving for Ux, Initial residual = 4.96885e-05, Final residual = 6.21539e-08, No Iterations 1
smoothSolver:  Solving for Uy, Initial residual = 0.00157992, Final residual = 1.94664e-06, No Iterations 1
DICPCG:  Solving for p, Initial residual = 0.0056163, Final residual = 0.000258781, No Iterations 101
time step continuity errors : sum local = 3.64007e-10, global = 5.11949e-19, cumulative = 5.71625e-18
DICPCG:  Solving for p, Initial residual = 0.000412724, Final residual = 8.4898e-07, No Iterations 118
time step continuity errors : sum local = 1.24001e-12, global = 1.65016e-19, cumulative = 5.88127e-18
ExecutionTime = 163.26 s  ClockTime = 167 s

Time = 0.99775

Courant Number mean: 0.050211 max: 0.184851
smoothSolver:  Solving for Ux, Initial residual = 5.22242e-05, Final residual = 6.39813e-08, No Iterations 1
smoothSolver:  Solving for Uy, Initial residual = 0.00157477, Final residual = 1.92044e-06, No Iterations 1
DICPCG:  Solving for p, Initial residual = 0.00551804, Final residual = 0.000245132, No Iterations 44
time step continuity errors : sum local = 4.05779e-10, global = -4.25577e-19, cumulative = 5.45569e-18
DICPCG:  Solving for p, Initial residual = 0.000412548, Final residual = 8.85116e-07, No Iterations 118
time step continuity errors : sum local = 1.28691e-12, global = -1.89485e-19, cumulative = 5.2662e-18
ExecutionTime = 163.29 s  ClockTime = 167 s

Time = 0.998

Courant Number mean: 0.0502109 max: 0.184765
smoothSolver:  Solving for Ux, Initial residual = 5.04831e-05, Final residual = 6.27994e-08, No Iterations 1
smoothSolver:  Solving for Uy, Initial residual = 0.00157659, Final residual = 1.94414e-06, No Iterations 1
DICPCG:  Solving for p, Initial residual = 0.00574581, Final residual = 0.000276851, No Iterations 100
time step continuity errors : sum local = 3.95075e-10, global = 1.60489e-19, cumulative = 5.42669e-18
DICPCG:  Solving for p, Initial residual = 0.000474117, Final residual = 9.17927e-07, No Iterations 120
time step continuity errors : sum local = 1.25669e-12, global = -6.59271e-19, cumulative = 4.76742e-18
ExecutionTime = 163.34 s  ClockTime = 167 s

Time = 0.99825

Courant Number mean: 0.0502107 max: 0.18467
smoothSolver:  Solving for Ux, Initial residual = 4.75789e-05, Final residual = 6.07585e-08, No Iterations 1
smoothSolver:  Solving for Uy, Initial residual = 0.00158268, Final residual = 1.98929e-06, No Iterations 1
DICPCG:  Solving for p, Initial residual = 0.00687054, Final residual = 0.000278626, No Iterations 4
time step continuity errors : sum local = 3.84496e-10, global = -4.05489e-20, cumulative = 4.72687e-18
DICPCG:  Solving for p, Initial residual = 0.000465414, Final residual = 8.39185e-07, No Iterations 118
time step continuity errors : sum local = 1.14669e-12, global = 4.73734e-20, cumulative = 4.77425e-18
ExecutionTime = 163.37 s  ClockTime = 167 s

Time = 0.9985

Courant Number mean: 0.0502106 max: 0.184569
smoothSolver:  Solving for Ux, Initial residual = 4.78466e-05, Final residual = 6.10504e-08, No Iterations 1
smoothSolver:  Solving for Uy, Initial residual = 0.00158371, Final residual = 1.99087e-06, No Iterations 1
DICPCG:  Solving for p, Initial residual = 0.00626973, Final residual = 0.000309528, No Iterations 52
time step continuity errors : sum local = 4.85599e-10, global = 5.39011e-20, cumulative = 4.82815e-18
DICPCG:  Solving for p, Initial residual = 0.000501955, Final residual = 9.91018e-07, No Iterations 116
time step continuity errors : sum local = 1.35064e-12, global = 2.04932e-19, cumulative = 5.03308e-18
ExecutionTime = 163.4 s  ClockTime = 167 s

Time = 0.99875

Courant Number mean: 0.0502104 max: 0.18446
smoothSolver:  Solving for Ux, Initial residual = 4.6691e-05, Final residual = 6.02056e-08, No Iterations 1
smoothSolver:  Solving for Uy, Initial residual = 0.00158916, Final residual = 2.02201e-06, No Iterations 1
DICPCG:  Solving for p, Initial residual = 0.00761654, Final residual = 0.00034577, No Iterations 44
time step continuity errors : sum local = 5.21092e-10, global = 3.08105e-19, cumulative = 5.34119e-18
DICPCG:  Solving for p, Initial residual = 0.000591655, Final residual = 8.13346e-07, No Iterations 120
time step continuity errors : sum local = 1.08014e-12, global = -1.9173e-19, cumulative = 5.14946e-18
ExecutionTime = 163.43 s  ClockTime = 167 s

Time = 0.999

Courant Number mean: 0.0502101 max: 0.184345
smoothSolver:  Solving for Ux, Initial residual = 4.60168e-05, Final residual = 5.96499e-08, No Iterations 1
smoothSolver:  Solving for Uy, Initial residual = 0.00159421, Final residual = 2.05268e-06, No Iterations 1
DICPCG:  Solving for p, Initial residual = 0.00930509, Final residual = 0.000357406, No Iterations 4
time step continuity errors : sum local = 4.6673e-10, global = -2.64563e-19, cumulative = 4.88489e-18
DICPCG:  Solving for p, Initial residual = 0.000679739, Final residual = 9.76568e-07, No Iterations 120
time step continuity errors : sum local = 1.26221e-12, global = -1.0314e-19, cumulative = 4.78175e-18
ExecutionTime = 163.47 s  ClockTime = 167 s

Time = 0.99925

Courant Number mean: 0.0502099 max: 0.184223
smoothSolver:  Solving for Ux, Initial residual = 4.59247e-05, Final residual = 5.9644e-08, No Iterations 1
smoothSolver:  Solving for Uy, Initial residual = 0.00159758, Final residual = 2.06808e-06, No Iterations 1
DICPCG:  Solving for p, Initial residual = 0.00790797, Final residual = 0.000364914, No Iterations 102
time step continuity errors : sum local = 4.69658e-10, global = 7.32933e-20, cumulative = 4.85505e-18
DICPCG:  Solving for p, Initial residual = 0.000697922, Final residual = 9.67928e-07, No Iterations 123
time step continuity errors : sum local = 1.14389e-12, global = 1.63545e-19, cumulative = 5.01859e-18
ExecutionTime = 163.51 s  ClockTime = 167 s

Time = 0.9995

Courant Number mean: 0.0502096 max: 0.184093
smoothSolver:  Solving for Ux, Initial residual = 4.64332e-05, Final residual = 5.94744e-08, No Iterations 1
smoothSolver:  Solving for Uy, Initial residual = 0.00161032, Final residual = 2.14421e-06, No Iterations 1
DICPCG:  Solving for p, Initial residual = 0.00781089, Final residual = 0.000362658, No Iterations 45
time step continuity errors : sum local = 4.91762e-10, global = -3.02293e-19, cumulative = 4.7163e-18
DICPCG:  Solving for p, Initial residual = 0.000616815, Final residual = 9.72726e-07, No Iterations 119
time step continuity errors : sum local = 1.14667e-12, global = 5.10143e-19, cumulative = 5.22644e-18
ExecutionTime = 163.54 s  ClockTime = 167 s

Time = 0.99975

Courant Number mean: 0.0502093 max: 0.183956
smoothSolver:  Solving for Ux, Initial residual = 4.74893e-05, Final residual = 6.00404e-08, No Iterations 1
smoothSolver:  Solving for Uy, Initial residual = 0.00161774, Final residual = 2.18051e-06, No Iterations 1
DICPCG:  Solving for p, Initial residual = 0.00816744, Final residual = 0.000325797, No Iterations 4
time step continuity errors : sum local = 3.77884e-10, global = -3.76645e-19, cumulative = 4.8498e-18
DICPCG:  Solving for p, Initial residual = 0.000533766, Final residual = 9.94226e-07, No Iterations 115
time step continuity errors : sum local = 1.14083e-12, global = 3.93504e-19, cumulative = 5.2433e-18
ExecutionTime = 163.58 s  ClockTime = 167 s

Time = 1

Courant Number mean: 0.0502091 max: 0.183813
smoothSolver:  Solving for Ux, Initial residual = 4.73462e-05, Final residual = 6.01214e-08, No Iterations 1
smoothSolver:  Solving for Uy, Initial residual = 0.00162041, Final residual = 2.18789e-06, No Iterations 1
DICPCG:  Solving for p, Initial residual = 0.00809366, Final residual = 0.000395367, No Iterations 52
time step continuity errors : sum local = 5.14688e-10, global = 2.31326e-19, cumulative = 5.47463e-18
DICPCG:  Solving for p, Initial residual = 0.000645487, Final residual = 9.75372e-07, No Iterations 118
time step continuity errors : sum local = 1.13571e-12, global = 1.75274e-19, cumulative = 5.6499e-18
ExecutionTime = 163.64 s  ClockTime = 168 s

End

